/*---------------------------------------------------------------------------*\
| =========                 |                                                 |
| \\      /  F ield         | OpenFOAM: The Open Source CFD Toolbox           |
|  \\    /   O peration     | Version:  4.1                                   |
|   \\  /    A nd           | Web:      www.OpenFOAM.org                      |
|    \\/     M anipulation  |                                                 |
\*---------------------------------------------------------------------------*/
Build  : 4.1
Exec   : impesFoam
Date   : Feb 27 2019
Time   : 18:05:32
Host   : "elwardi"
PID    : 20545
Case   : /home/elwardi/MasterThesis/reservoir-simulator/tutorials/impesFoam/TanejaDr/fiveSpot03
nProcs : 1
sigFpe : Enabling floating point exception trapping (FOAM_SIGFPE).
fileModificationChecking : Monitoring run-time modified files using timeStampMaster
allowSystemOperations : Allowing user-supplied system call operations

// * * * * * * * * * * * * * * * * * * * * * * * * * * * * * * * * * * * * * //
Create time

Using #calcEntry at line 27 in file "/home/elwardi/MasterThesis/reservoir-simulator/tutorials/impesFoam/TanejaDr/fiveSpot03/system/controlDict"
Using #codeStream with "/home/elwardi/MasterThesis/reservoir-simulator/tutorials/impesFoam/TanejaDr/fiveSpot03/dynamicCode/platforms/linux64GccDPInt32Opt/lib/libcodeStream_033dbd752947219024abb850bca21c37bded607c.so"
Create mesh for time = 0


Reading g
Reading field p

Reading transportProperties

