/*---------------------------------------------------------------------------*\
| =========                 |                                                 |
| \\      /  F ield         | OpenFOAM: The Open Source CFD Toolbox           |
|  \\    /   O peration     | Version:  4.1                                   |
|   \\  /    A nd           | Web:      www.OpenFOAM.org                      |
|    \\/     M anipulation  |                                                 |
\*---------------------------------------------------------------------------*/
Build  : 4.1
Exec   : impesFoam
Date   : Feb 27 2019
Time   : 17:30:52
Host   : "elwardi"
PID    : 26444
Case   : /home/elwardi/MasterThesis/reservoir-simulator/tutorials/impesFoam/BuckleyLeverett
nProcs : 1
sigFpe : Enabling floating point exception trapping (FOAM_SIGFPE).
fileModificationChecking : Monitoring run-time modified files using timeStampMaster
allowSystemOperations : Allowing user-supplied system call operations

// * * * * * * * * * * * * * * * * * * * * * * * * * * * * * * * * * * * * * //
Create time

Using #calcEntry at line 28 in file "/home/elwardi/MasterThesis/reservoir-simulator/tutorials/impesFoam/BuckleyLeverett/system/controlDict"
Using #codeStream with "/home/elwardi/MasterThesis/reservoir-simulator/tutorials/impesFoam/BuckleyLeverett/dynamicCode/platforms/linux64GccDPInt32Opt/lib/libcodeStream_5047b4e695aac01261cba2fe8596341b1388f270.so"
Using #calcEntry at line 30 in file "/home/elwardi/MasterThesis/reservoir-simulator/tutorials/impesFoam/BuckleyLeverett/system/controlDict"
Using #codeStream with "/home/elwardi/MasterThesis/reservoir-simulator/tutorials/impesFoam/BuckleyLeverett/dynamicCode/platforms/linux64GccDPInt32Opt/lib/libcodeStream_1a182dd175ca1256a22ec43f096a131affeb3ab3.so"
Using #calcEntry at line 34 in file "/home/elwardi/MasterThesis/reservoir-simulator/tutorials/impesFoam/BuckleyLeverett/system/controlDict"
Using #codeStream with "/home/elwardi/MasterThesis/reservoir-simulator/tutorials/impesFoam/BuckleyLeverett/dynamicCode/platforms/linux64GccDPInt32Opt/lib/libcodeStream_dc363596cc2d19d60414184bb6afc768ed6445f2.so"
Create mesh for time = 0


Reading g
Reading field p

Reading transportProperties

Selecting relativePermeability model: BrooksCorey

Reading field K

Reading field U

Reading/calculating face flux field phi

Selecting Capillary Pressure model:  BrooksCorey

Selecting well model : PeacemanWellModel

Reading Wells
Updating Started
Wells Data: 16

Starting time loop

Coats Number mean: 2.37213e-10 max: 3.97506e-10
deltaT = 85544.6
Time = 85544.6

diagonal:  Solving for water.alpha, Initial residual = 0, Final residual = 0, No Iterations 0
Saturation w  Min = 0.1601 Max = 0.209588
DICPCG:  Solving for p, Initial residual = 1, Final residual = 7.16114e-13, No Iterations 1
time step continuity errors : sum local = 1.04211e-16, global = 8.15889e-18, cumulative = 8.15889e-18
ExecutionTime = 0.01 s  ClockTime = 0 s

Coats Number mean: 0.000307068 max: 0.0307067
deltaT = 85544.6
Time = 171089

diagonal:  Solving for water.alpha, Initial residual = 0, Final residual = 0, No Iterations 0
Saturation w  Min = 0.1601 Max = 0.259075
DICPCG:  Solving for p, Initial residual = 0.00304854, Final residual = 7.24846e-19, No Iterations 1
time step continuity errors : sum local = 1.04747e-16, global = 2.60853e-19, cumulative = 8.41974e-18
ExecutionTime = 0.01 s  ClockTime = 0 s

Coats Number mean: 0.00189693 max: 0.189693
deltaT = 85544.6
Time = 256634

diagonal:  Solving for water.alpha, Initial residual = 0, Final residual = 0, No Iterations 0
Saturation w  Min = 0.1601 Max = 0.304205
DICPCG:  Solving for p, Initial residual = 0.000730802, Final residual = 1.07363e-28, No Iterations 1
time step continuity errors : sum local = 5.3127e-17, global = -2.60853e-18, cumulative = 5.81122e-18
ExecutionTime = 0.01 s  ClockTime = 0 s

Coats Number mean: 0.00482132 max: 0.482112
deltaT = 85544.6
Time = 342178

diagonal:  Solving for water.alpha, Initial residual = 0, Final residual = 0, No Iterations 0
Saturation w  Min = 0.1601 Max = 0.336307
DICPCG:  Solving for p, Initial residual = 0.00236615, Final residual = 2.26495e-19, No Iterations 1
time step continuity errors : sum local = 9.22983e-17, global = -4.36204e-18, cumulative = 1.44918e-18
ExecutionTime = 0.01 s  ClockTime = 0 s

Coats Number mean: 0.00782944 max: 0.780865
deltaT = 82156.7
Time = 424335

diagonal:  Solving for water.alpha, Initial residual = 0, Final residual = 0, No Iterations 0
Saturation w  Min = 0.1601 Max = 0.353955
DICPCG:  Solving for p, Initial residual = 0.00129797, Final residual = 4.07002e-19, No Iterations 1
time step continuity errors : sum local = 8.5762e-17, global = -1.50313e-18, cumulative = -5.39497e-20
ExecutionTime = 0.01 s  ClockTime = 0 s

Coats Number mean: 0.00960845 max: 0.938808
deltaT = 65203.7
Time = 489539

diagonal:  Solving for water.alpha, Initial residual = 0, Final residual = 0, No Iterations 0
Saturation w  Min = 0.1601 Max = 0.366458
DICPCG:  Solving for p, Initial residual = 0.000945511, Final residual = 7.07782e-22, No Iterations 1
time step continuity errors : sum local = 6.30944e-17, global = 3.57888e-18, cumulative = 3.52493e-18
ExecutionTime = 0.01 s  ClockTime = 0 s

Coats Number mean: 0.00911667 max: 0.861851
deltaT = 56600.4
Time = 546139

diagonal:  Solving for water.alpha, Initial residual = 0, Final residual = 0, No Iterations 0
Saturation w  Min = 0.1601 Max = 0.377418
DICPCG:  Solving for p, Initial residual = 0.000542463, Final residual = 9.34202e-20, No Iterations 1
time step continuity errors : sum local = 4.893e-17, global = 1.25609e-18, cumulative = 4.78102e-18
ExecutionTime = 0.01 s  ClockTime = 0 s

Coats Number mean: 0.00923322 max: 0.843221
deltaT = 50272.4
Time = 596411

diagonal:  Solving for water.alpha, Initial residual = 0, Final residual = 0, No Iterations 0
Saturation w  Min = 0.1601 Max = 0.387133
DICPCG:  Solving for p, Initial residual = 0.000191745, Final residual = 4.81229e-20, No Iterations 1
time step continuity errors : sum local = 3.43895e-17, global = 1.7033e-19, cumulative = 4.95135e-18
ExecutionTime = 0.01 s  ClockTime = 0 s

Coats Number mean: 0.00934916 max: 0.828113
deltaT = 45444
Time = 641855

diagonal:  Solving for water.alpha, Initial residual = 0, Final residual = 0, No Iterations 0
Saturation w  Min = 0.1601 Max = 0.395746
DICPCG:  Solving for p, Initial residual = 0.000291589, Final residual = 4.52907e-20, No Iterations 1
time step continuity errors : sum local = 3.72839e-17, global = -5.61991e-19, cumulative = 4.38936e-18
ExecutionTime = 0.02 s  ClockTime = 0 s

Coats Number mean: 0.00943328 max: 0.815055
deltaT = 41657
Time = 683512

diagonal:  Solving for water.alpha, Initial residual = 0, Final residual = 0, No Iterations 0
Saturation w  Min = 0.1601 Max = 0.403347
DICPCG:  Solving for p, Initial residual = 0.000390326, Final residual = 1.13229e-20, No Iterations 1
time step continuity errors : sum local = 3.87498e-17, global = -9.38577e-19, cumulative = 3.45079e-18
ExecutionTime = 0.02 s  ClockTime = 0 s

Coats Number mean: 0.00947929 max: 0.803077
deltaT = 38812.1
Time = 722325

diagonal:  Solving for water.alpha, Initial residual = 0, Final residual = 0, No Iterations 0
Saturation w  Min = 0.1601 Max = 0.410068
DICPCG:  Solving for p, Initial residual = 0.000442915, Final residual = 2.01917e-28, No Iterations 1
time step continuity errors : sum local = 2.90748e-17, global = 2.18291e-18, cumulative = 5.6337e-18
ExecutionTime = 0.02 s  ClockTime = 0 s

Coats Number mean: 0.00954549 max: 0.795878
deltaT = 36487
Time = 758812

diagonal:  Solving for water.alpha, Initial residual = 0, Final residual = 0, No Iterations 0
Saturation w  Min = 0.1601 Max = 0.416014
DICPCG:  Solving for p, Initial residual = 0.000452262, Final residual = 1.13224e-20, No Iterations 1
time step continuity errors : sum local = 1.93531e-17, global = 9.20989e-19, cumulative = 6.55469e-18
ExecutionTime = 0.02 s  ClockTime = 0 s

Coats Number mean: 0.00959228 max: 0.788964
deltaT = 34566.6
Time = 793378

diagonal:  Solving for water.alpha, Initial residual = 0, Final residual = 0, No Iterations 0
Saturation w  Min = 0.1601 Max = 0.421303
DICPCG:  Solving for p, Initial residual = 0.000434364, Final residual = 1.18884e-19, No Iterations 1
time step continuity errors : sum local = 2.85647e-17, global = -3.39637e-19, cumulative = 6.21505e-18
ExecutionTime = 0.02 s  ClockTime = 0 s

Coats Number mean: 0.00963337 max: 0.782645
deltaT = 33108.1
Time = 826486

diagonal:  Solving for water.alpha, Initial residual = 0, Final residual = 0, No Iterations 0
Saturation w  Min = 0.1601 Max = 0.426073
DICPCG:  Solving for p, Initial residual = 0.000406119, Final residual = 2.83055e-20, No Iterations 1
time step continuity errors : sum local = 2.65854e-17, global = -1.3461e-19, cumulative = 6.08044e-18
ExecutionTime = 0.02 s  ClockTime = 0 s

Coats Number mean: 0.00972293 max: 0.780683
deltaT = 31762.3
Time = 858249

diagonal:  Solving for water.alpha, Initial residual = 0, Final residual = 0, No Iterations 0
Saturation w  Min = 0.1601 Max = 0.430406
DICPCG:  Solving for p, Initial residual = 0.000392388, Final residual = 7.39467e-20, No Iterations 1
time step continuity errors : sum local = 2.75601e-17, global = -1.94783e-18, cumulative = 4.13261e-18
ExecutionTime = 0.02 s  ClockTime = 0 s

Coats Number mean: 0.0097837 max: 0.776521
deltaT = 30636.8
Time = 888885

diagonal:  Solving for water.alpha, Initial residual = 0, Final residual = 0, No Iterations 0
Saturation w  Min = 0.1601 Max = 0.434389
DICPCG:  Solving for p, Initial residual = 0.000368857, Final residual = 4.70558e-20, No Iterations 1
time step continuity errors : sum local = 2.42532e-17, global = -3.37355e-19, cumulative = 3.79526e-18
ExecutionTime = 0.03 s  ClockTime = 0 s

Coats Number mean: 0.00986427 max: 0.773875
deltaT = 29584.4
Time = 918470

diagonal:  Solving for water.alpha, Initial residual = 0, Final residual = 0, No Iterations 0
Saturation w  Min = 0.1601 Max = 0.438084
DICPCG:  Solving for p, Initial residual = 0.000335329, Final residual = 8.56179e-20, No Iterations 1
time step continuity errors : sum local = 2.19015e-17, global = -2.70637e-19, cumulative = 3.52462e-18
ExecutionTime = 0.03 s  ClockTime = 0 s

Coats Number mean: 0.00992918 max: 0.7699
deltaT = 28811.7
Time = 947281

diagonal:  Solving for water.alpha, Initial residual = 0, Final residual = 0, No Iterations 0
Saturation w  Min = 0.1601 Max = 0.441563
DICPCG:  Solving for p, Initial residual = 0.000299562, Final residual = 5.27134e-20, No Iterations 1
time step continuity errors : sum local = 2.01434e-17, global = 2.44044e-20, cumulative = 3.54903e-18
ExecutionTime = 0.03 s  ClockTime = 0 s

Coats Number mean: 0.0100596 max: 0.770815
deltaT = 27973.5
Time = 975255

diagonal:  Solving for water.alpha, Initial residual = 0, Final residual = 0, No Iterations 0
Saturation w  Min = 0.1601 Max = 0.444851
DICPCG:  Solving for p, Initial residual = 0.00026132, Final residual = 5.80182e-20, No Iterations 1
time step continuity errors : sum local = 1.89082e-17, global = 9.57258e-19, cumulative = 4.50628e-18
ExecutionTime = 0.03 s  ClockTime = 0 s

Coats Number mean: 0.0101418 max: 0.767922
deltaT = 27276.7
Time = 1.00253e+06

diagonal:  Solving for water.alpha, Initial residual = 0, Final residual = 0, No Iterations 0
Saturation w  Min = 0.1601 Max = 0.447986
DICPCG:  Solving for p, Initial residual = 0.000218979, Final residual = 4.9526e-20, No Iterations 1
time step continuity errors : sum local = 1.23007e-17, global = 7.39336e-20, cumulative = 4.58022e-18
ExecutionTime = 0.03 s  ClockTime = 0 s

Coats Number mean: 0.0102529 max: 0.767173
deltaT = 26611.4
Time = 1.02914e+06

diagonal:  Solving for water.alpha, Initial residual = 0, Final residual = 0, No Iterations 0
Saturation w  Min = 0.1601 Max = 0.45099
DICPCG:  Solving for p, Initial residual = 0.000174315, Final residual = 2.54697e-20, No Iterations 1
time step continuity errors : sum local = 1.22035e-17, global = 5.63518e-19, cumulative = 5.14373e-18
ExecutionTime = 0.03 s  ClockTime = 0 s

Coats Number mean: 0.0103555 max: 0.765838
deltaT = 25975.6
Time = 1.05512e+06

diagonal:  Solving for water.alpha, Initial residual = 0, Final residual = 0, No Iterations 0
Saturation w  Min = 0.1601 Max = 0.45388
DICPCG:  Solving for p, Initial residual = 0.000130363, Final residual = 2.2639e-20, No Iterations 1
time step continuity errors : sum local = 1.91463e-17, global = -5.23653e-19, cumulative = 4.62008e-18
ExecutionTime = 0.03 s  ClockTime = 0 s

Coats Number mean: 0.0104498 max: 0.764028
deltaT = 25452.6
Time = 1.08057e+06

diagonal:  Solving for water.alpha, Initial residual = 0, Final residual = 0, No Iterations 0
Saturation w  Min = 0.1601 Max = 0.456676
DICPCG:  Solving for p, Initial residual = 9.01191e-05, Final residual = 4.52766e-20, No Iterations 1
time step continuity errors : sum local = 2.57072e-17, global = -1.14695e-18, cumulative = 3.47313e-18
ExecutionTime = 0.04 s  ClockTime = 0 s

Coats Number mean: 0.0105719 max: 0.764433
deltaT = 24948.6
Time = 1.10552e+06

diagonal:  Solving for water.alpha, Initial residual = 0, Final residual = 0, No Iterations 0
Saturation w  Min = 0.1601 Max = 0.459386
DICPCG:  Solving for p, Initial residual = 8.23229e-05, Final residual = 3.16575e-20, No Iterations 1
time step continuity errors : sum local = 1.72355e-17, global = 1.65677e-18, cumulative = 5.1299e-18
ExecutionTime = 0.04 s  ClockTime = 0 s

Coats Number mean: 0.0106852 max: 0.764439
deltaT = 24462.6
Time = 1.12998e+06

diagonal:  Solving for water.alpha, Initial residual = 0, Final residual = 0, No Iterations 0
Saturation w  Min = 0.1601 Max = 0.462015
DICPCG:  Solving for p, Initial residual = 0.000116906, Final residual = 4.103e-20, No Iterations 1
time step continuity errors : sum local = 1.79109e-17, global = 6.96213e-19, cumulative = 5.82612e-18
ExecutionTime = 0.04 s  ClockTime = 0 s

Coats Number mean: 0.0107893 max: 0.764083
deltaT = 23993.7
Time = 1.15398e+06

diagonal:  Solving for water.alpha, Initial residual = 0, Final residual = 0, No Iterations 0
Saturation w  Min = 0.1601 Max = 0.464567
DICPCG:  Solving for p, Initial residual = 0.000143743, Final residual = 2.9712e-20, No Iterations 1
time step continuity errors : sum local = 2.0043e-17, global = -1.62181e-18, cumulative = 4.20431e-18
ExecutionTime = 0.04 s  ClockTime = 0 s

Coats Number mean: 0.0108839 max: 0.763393
deltaT = 23541
Time = 1.17752e+06

diagonal:  Solving for water.alpha, Initial residual = 0, Final residual = 0, No Iterations 0
Saturation w  Min = 0.1601 Max = 0.467043
DICPCG:  Solving for p, Initial residual = 0.000163301, Final residual = 1.41477e-20, No Iterations 1
time step continuity errors : sum local = 1.56888e-17, global = -1.03688e-19, cumulative = 4.10062e-18
ExecutionTime = 0.04 s  ClockTime = 0 s

Coats Number mean: 0.010969 max: 0.762388
deltaT = 23103.7
Time = 1.20062e+06

diagonal:  Solving for water.alpha, Initial residual = 0, Final residual = 0, No Iterations 0
Saturation w  Min = 0.1601 Max = 0.469445
DICPCG:  Solving for p, Initial residual = 0.000176543, Final residual = 3.04197e-20, No Iterations 1
time step continuity errors : sum local = 2.39453e-17, global = -7.59299e-19, cumulative = 3.34132e-18
ExecutionTime = 0.04 s  ClockTime = 0 s

Coats Number mean: 0.0110448 max: 0.76108
deltaT = 22750.4
Time = 1.22337e+06

diagonal:  Solving for water.alpha, Initial residual = 0, Final residual = 0, No Iterations 0
Saturation w  Min = 0.1601 Max = 0.47178
DICPCG:  Solving for p, Initial residual = 0.000185248, Final residual = 4.59894e-20, No Iterations 1
time step continuity errors : sum local = 1.88194e-17, global = 8.44041e-19, cumulative = 4.18536e-18
ExecutionTime = 0.04 s  ClockTime = 0 s

Coats Number mean: 0.0111463 max: 0.761842
deltaT = 22339.2
Time = 1.24571e+06

diagonal:  Solving for water.alpha, Initial residual = 0, Final residual = 0, No Iterations 0
Saturation w  Min = 0.1601 Max = 0.474042
DICPCG:  Solving for p, Initial residual = 0.000189448, Final residual = 1.4158e-20, No Iterations 1
time step continuity errors : sum local = 1.65947e-17, global = -9.19613e-19, cumulative = 3.26575e-18
ExecutionTime = 0.05 s  ClockTime = 0 s

Coats Number mean: 0.0112049 max: 0.759951
deltaT = 22006.8
Time = 1.26772e+06

diagonal:  Solving for water.alpha, Initial residual = 0, Final residual = 0, No Iterations 0
Saturation w  Min = 0.1601 Max = 0.476237
DICPCG:  Solving for p, Initial residual = 0.000191867, Final residual = 4.02961e-20, No Iterations 1
time step continuity errors : sum local = 1.33578e-17, global = 8.01541e-19, cumulative = 4.06729e-18
ExecutionTime = 0.05 s  ClockTime = 0 s

Coats Number mean: 0.0112897 max: 0.760079
deltaT = 21683.2
Time = 1.2894e+06

diagonal:  Solving for water.alpha, Initial residual = 0, Final residual = 0, No Iterations 0
Saturation w  Min = 0.1601 Max = 0.478367
DICPCG:  Solving for p, Initial residual = 0.000192533, Final residual = 1.69758e-20, No Iterations 1
time step continuity errors : sum local = 1.56959e-17, global = -1.21218e-19, cumulative = 3.94607e-18
ExecutionTime = 0.05 s  ClockTime = 0 s

Coats Number mean: 0.0113673 max: 0.759906
deltaT = 21368
Time = 1.31077e+06

diagonal:  Solving for water.alpha, Initial residual = 0, Final residual = 0, No Iterations 0
Saturation w  Min = 0.1601 Max = 0.480432
DICPCG:  Solving for p, Initial residual = 0.000190907, Final residual = 4.0538e-20, No Iterations 1
time step continuity errors : sum local = 1.6065e-17, global = 4.63345e-19, cumulative = 4.40942e-18
ExecutionTime = 0.05 s  ClockTime = 0 s

Coats Number mean: 0.0114382 max: 0.759441
deltaT = 21061
Time = 1.33183e+06

diagonal:  Solving for water.alpha, Initial residual = 0, Final residual = 0, No Iterations 0
Saturation w  Min = 0.1601 Max = 0.482434
DICPCG:  Solving for p, Initial residual = 0.000189957, Final residual = 5.68494e-20, No Iterations 1
time step continuity errors : sum local = 1.85244e-17, global = -1.2773e-18, cumulative = 3.13212e-18
ExecutionTime = 0.05 s  ClockTime = 0 s

Coats Number mean: 0.0115031 max: 0.758699
deltaT = 20761.8
Time = 1.35259e+06

diagonal:  Solving for water.alpha, Initial residual = 0, Final residual = 0, No Iterations 0
Saturation w  Min = 0.1601 Max = 0.484374
DICPCG:  Solving for p, Initial residual = 0.000191987, Final residual = 4.48686e-20, No Iterations 1
time step continuity errors : sum local = 1.48601e-17, global = 7.35094e-19, cumulative = 3.86721e-18
ExecutionTime = 0.05 s  ClockTime = 0 s

Coats Number mean: 0.0115625 max: 0.757693
deltaT = 20527.9
Time = 1.37312e+06

diagonal:  Solving for water.alpha, Initial residual = 0, Final residual = 0, No Iterations 0
Saturation w  Min = 0.1601 Max = 0.48626
DICPCG:  Solving for p, Initial residual = 0.000192944, Final residual = 4.89344e-20, No Iterations 1
time step continuity errors : sum local = 1.40667e-17, global = -1.17889e-18, cumulative = 2.68832e-18
ExecutionTime = 0.05 s  ClockTime = 0 s

Coats Number mean: 0.0116503 max: 0.758598
deltaT = 20242
Time = 1.39336e+06

diagonal:  Solving for water.alpha, Initial residual = 0, Final residual = 0, No Iterations 0
Saturation w  Min = 0.1601 Max = 0.488088
DICPCG:  Solving for p, Initial residual = 0.000192084, Final residual = 4.84471e-20, No Iterations 1
time step continuity errors : sum local = 1.80749e-17, global = -5.31515e-19, cumulative = 2.1568e-18
ExecutionTime = 0.05 s  ClockTime = 0 s

Coats Number mean: 0.0117006 max: 0.757106
deltaT = 20018.3
Time = 1.41338e+06

diagonal:  Solving for water.alpha, Initial residual = 0, Final residual = 0, No Iterations 0
Saturation w  Min = 0.1601 Max = 0.489867
DICPCG:  Solving for p, Initial residual = 0.000189895, Final residual = 8.2305e-20, No Iterations 1
time step continuity errors : sum local = 1.82415e-17, global = -4.1034e-19, cumulative = 1.74646e-18
ExecutionTime = 0.05 s  ClockTime = 0 s

Coats Number mean: 0.0117801 max: 0.75751
deltaT = 19799
Time = 1.43318e+06

diagonal:  Solving for water.alpha, Initial residual = 0, Final residual = 0, No Iterations 0
Saturation w  Min = 0.1601 Max = 0.491597
DICPCG:  Solving for p, Initial residual = 0.000185866, Final residual = 4.54389e-20, No Iterations 1
time step continuity errors : sum local = 1.68073e-17, global = 5.6013e-19, cumulative = 2.30659e-18
ExecutionTime = 0.05 s  ClockTime = 0 s

Coats Number mean: 0.0118561 max: 0.75769
deltaT = 19583.8
Time = 1.45276e+06

diagonal:  Solving for water.alpha, Initial residual = 0, Final residual = 0, No Iterations 0
Saturation w  Min = 0.1601 Max = 0.493282
DICPCG:  Solving for p, Initial residual = 0.000180045, Final residual = 3.39457e-20, No Iterations 1
time step continuity errors : sum local = 1.55762e-17, global = -7.26558e-19, cumulative = 1.58003e-18
ExecutionTime = 0.05 s  ClockTime = 0 s

Coats Number mean: 0.0119291 max: 0.757659
deltaT = 19372.6
Time = 1.47213e+06

diagonal:  Solving for water.alpha, Initial residual = 0, Final residual = 0, No Iterations 0
Saturation w  Min = 0.1601 Max = 0.494923
DICPCG:  Solving for p, Initial residual = 0.000172522, Final residual = 8.78673e-20, No Iterations 1
time step continuity errors : sum local = 1.88477e-17, global = -3.31467e-19, cumulative = 1.24857e-18
ExecutionTime = 0.05 s  ClockTime = 0 s

Coats Number mean: 0.0119993 max: 0.757434
deltaT = 19165.4
Time = 1.4913e+06

diagonal:  Solving for water.alpha, Initial residual = 0, Final residual = 0, No Iterations 0
Saturation w  Min = 0.1601 Max = 0.496524
DICPCG:  Solving for p, Initial residual = 0.000163433, Final residual = 3.00543e-20, No Iterations 1
time step continuity errors : sum local = 1.69967e-17, global = -2.6948e-19, cumulative = 9.79088e-19
ExecutionTime = 0.05 s  ClockTime = 0 s

Coats Number mean: 0.0120668 max: 0.757028
deltaT = 18962.1
Time = 1.51026e+06

diagonal:  Solving for water.alpha, Initial residual = 0, Final residual = 0, No Iterations 0
Saturation w  Min = 0.1601 Max = 0.498086
DICPCG:  Solving for p, Initial residual = 0.000152963, Final residual = 6.22283e-20, No Iterations 1
time step continuity errors : sum local = 1.17699e-17, global = 1.40056e-18, cumulative = 2.37965e-18
ExecutionTime = 0.06 s  ClockTime = 0 s

Coats Number mean: 0.0121319 max: 0.756457
deltaT = 18762.5
Time = 1.52902e+06

diagonal:  Solving for water.alpha, Initial residual = 0, Final residual = 0, No Iterations 0
Saturation w  Min = 0.1601 Max = 0.499612
DICPCG:  Solving for p, Initial residual = 0.000141345, Final residual = 9.89965e-21, No Iterations 1
time step continuity errors : sum local = 1.60227e-17, global = -2.95599e-19, cumulative = 2.08405e-18
ExecutionTime = 0.06 s  ClockTime = 0 s

Coats Number mean: 0.0121946 max: 0.755734
deltaT = 18615.1
Time = 1.54764e+06

diagonal:  Solving for water.alpha, Initial residual = 0, Final residual = 0, No Iterations 0
Saturation w  Min = 0.1601 Max = 0.501108
DICPCG:  Solving for p, Initial residual = 0.000129171, Final residual = 2.89909e-20, No Iterations 1
time step continuity errors : sum local = 1.37304e-17, global = 2.45975e-19, cumulative = 2.33003e-18
ExecutionTime = 0.06 s  ClockTime = 0 s

Coats Number mean: 0.0122876 max: 0.756866
deltaT = 18421.7
Time = 1.56606e+06

diagonal:  Solving for water.alpha, Initial residual = 0, Final residual = 0, No Iterations 0
Saturation w  Min = 0.1601 Max = 0.502572
DICPCG:  Solving for p, Initial residual = 0.00011604, Final residual = 1.73233e-20, No Iterations 1
time step continuity errors : sum local = 1.31041e-17, global = -1.77883e-19, cumulative = 2.15214e-18
ExecutionTime = 0.06 s  ClockTime = 0 s

Coats Number mean: 0.0123461 max: 0.755871
deltaT = 18231.8
Time = 1.58429e+06

diagonal:  Solving for water.alpha, Initial residual = 0, Final residual = 0, No Iterations 0
Saturation w  Min = 0.1601 Max = 0.504006
DICPCG:  Solving for p, Initial residual = 0.000102663, Final residual = 8.48463e-21, No Iterations 1
time step continuity errors : sum local = 1.28547e-17, global = 3.08859e-20, cumulative = 2.18303e-18
ExecutionTime = 0.06 s  ClockTime = 0 s

Coats Number mean: 0.0124022 max: 0.754759
deltaT = 18091.6
Time = 1.60238e+06

diagonal:  Solving for water.alpha, Initial residual = 0, Final residual = 0, No Iterations 0
Saturation w  Min = 0.1601 Max = 0.505415
DICPCG:  Solving for p, Initial residual = 8.95813e-05, Final residual = 2.47461e-20, No Iterations 1
time step continuity errors : sum local = 1.56276e-17, global = -6.03771e-19, cumulative = 1.57926e-18
ExecutionTime = 0.06 s  ClockTime = 0 s

Coats Number mean: 0.0124885 max: 0.75549
deltaT = 17953.1
Time = 1.62034e+06

diagonal:  Solving for water.alpha, Initial residual = 0, Final residual = 0, No Iterations 0
Saturation w  Min = 0.1601 Max = 0.506801
DICPCG:  Solving for p, Initial residual = 7.68033e-05, Final residual = 3.88855e-20, No Iterations 1
time step continuity errors : sum local = 1.51552e-17, global = -1.0736e-18, cumulative = 5.05653e-19
ExecutionTime = 0.06 s  ClockTime = 0 s

Coats Number mean: 0.0125727 max: 0.756107
deltaT = 17771.3
Time = 1.63811e+06

diagonal:  Solving for water.alpha, Initial residual = 0, Final residual = 0, No Iterations 0
Saturation w  Min = 0.1601 Max = 0.508161
DICPCG:  Solving for p, Initial residual = 6.44819e-05, Final residual = 1.90887e-20, No Iterations 1
time step continuity errors : sum local = 1.17202e-17, global = 2.01709e-19, cumulative = 7.07361e-19
ExecutionTime = 0.06 s  ClockTime = 0 s

Coats Number mean: 0.0126224 max: 0.754686
deltaT = 17637
Time = 1.65575e+06

diagonal:  Solving for water.alpha, Initial residual = 0, Final residual = 0, No Iterations 0
Saturation w  Min = 0.1601 Max = 0.5095
DICPCG:  Solving for p, Initial residual = 5.32269e-05, Final residual = 4.17113e-20, No Iterations 1
time step continuity errors : sum local = 1.28476e-17, global = 4.42198e-19, cumulative = 1.14956e-18
ExecutionTime = 0.06 s  ClockTime = 0 s

Coats Number mean: 0.0127019 max: 0.755095
deltaT = 17504.4
Time = 1.67325e+06

diagonal:  Solving for water.alpha, Initial residual = 0, Final residual = 0, No Iterations 0
Saturation w  Min = 0.1601 Max = 0.510819
DICPCG:  Solving for p, Initial residual = 5.51524e-05, Final residual = 2.8278e-20, No Iterations 1
time step continuity errors : sum local = 1.34153e-17, global = -1.54199e-18, cumulative = -3.92428e-19
ExecutionTime = 0.07 s  ClockTime = 0 s

Coats Number mean: 0.0127791 max: 0.755411
deltaT = 17373.4
Time = 1.69062e+06

diagonal:  Solving for water.alpha, Initial residual = 0, Final residual = 0, No Iterations 0
Saturation w  Min = 0.1601 Max = 0.512119
DICPCG:  Solving for p, Initial residual = 6.42265e-05, Final residual = 1.23715e-20, No Iterations 1
time step continuity errors : sum local = 1.99694e-17, global = -1.26262e-18, cumulative = -1.65505e-18
ExecutionTime = 0.07 s  ClockTime = 0 s

Coats Number mean: 0.012854 max: 0.755638
deltaT = 17201.4
Time = 1.70783e+06

diagonal:  Solving for water.alpha, Initial residual = 0, Final residual = 0, No Iterations 0
Saturation w  Min = 0.1601 Max = 0.513397
DICPCG:  Solving for p, Initial residual = 7.48245e-05, Final residual = 1.41389e-20, No Iterations 1
time step continuity errors : sum local = 1.72861e-17, global = 5.71151e-19, cumulative = -1.0839e-18
ExecutionTime = 0.07 s  ClockTime = 0 s

Coats Number mean: 0.0128941 max: 0.753897
deltaT = 17074.3
Time = 1.7249e+06

diagonal:  Solving for water.alpha, Initial residual = 0, Final residual = 0, No Iterations 0
Saturation w  Min = 0.1601 Max = 0.514658
DICPCG:  Solving for p, Initial residual = 8.41779e-05, Final residual = 2.19151e-20, No Iterations 1
time step continuity errors : sum local = 1.59145e-17, global = -2.314e-19, cumulative = -1.3153e-18
ExecutionTime = 0.07 s  ClockTime = 0 s

Coats Number mean: 0.0129638 max: 0.753959
deltaT = 16948.8
Time = 1.74185e+06

diagonal:  Solving for water.alpha, Initial residual = 0, Final residual = 0, No Iterations 0
Saturation w  Min = 0.1601 Max = 0.515901
DICPCG:  Solving for p, Initial residual = 9.21737e-05, Final residual = 5.44324e-20, No Iterations 1
time step continuity errors : sum local = 1.35809e-17, global = -1.02216e-18, cumulative = -2.33746e-18
ExecutionTime = 0.07 s  ClockTime = 0 s

Coats Number mean: 0.013031 max: 0.753945
deltaT = 16824.8
Time = 1.75867e+06

diagonal:  Solving for water.alpha, Initial residual = 0, Final residual = 0, No Iterations 0
Saturation w  Min = 0.1601 Max = 0.517128
DICPCG:  Solving for p, Initial residual = 9.88816e-05, Final residual = 3.67596e-20, No Iterations 1
time step continuity errors : sum local = 1.65769e-17, global = -3.99032e-19, cumulative = -2.73649e-18
ExecutionTime = 0.07 s  ClockTime = 0 s

Coats Number mean: 0.0130958 max: 0.753857
deltaT = 16702.2
Time = 1.77538e+06

diagonal:  Solving for water.alpha, Initial residual = 0, Final residual = 0, No Iterations 0
Saturation w  Min = 0.1601 Max = 0.518339
DICPCG:  Solving for p, Initial residual = 0.000104399, Final residual = 1.13123e-20, No Iterations 1
time step continuity errors : sum local = 1.66995e-17, global = -9.16749e-19, cumulative = -3.65324e-18
ExecutionTime = 0.07 s  ClockTime = 0 s

Coats Number mean: 0.0131581 max: 0.753697
deltaT = 16581.2
Time = 1.79196e+06

diagonal:  Solving for water.alpha, Initial residual = 0, Final residual = 0, No Iterations 0
Saturation w  Min = 0.1601 Max = 0.519533
DICPCG:  Solving for p, Initial residual = 0.000108841, Final residual = 2.54459e-20, No Iterations 1
time step continuity errors : sum local = 1.59971e-17, global = -8.67971e-19, cumulative = -4.52121e-18
ExecutionTime = 0.07 s  ClockTime = 0 s

Coats Number mean: 0.013218 max: 0.753468
deltaT = 16501.3
Time = 1.80846e+06

diagonal:  Solving for water.alpha, Initial residual = 0, Final residual = 0, No Iterations 0
Saturation w  Min = 0.1601 Max = 0.520714
DICPCG:  Solving for p, Initial residual = 0.000112603, Final residual = 7.06813e-21, No Iterations 1
time step continuity errors : sum local = 1.37367e-17, global = 8.33038e-19, cumulative = -3.68817e-18
ExecutionTime = 0.07 s  ClockTime = 0 s

Coats Number mean: 0.0133079 max: 0.754998
deltaT = 16382.6
Time = 1.82484e+06

diagonal:  Solving for water.alpha, Initial residual = 0, Final residual = 0, No Iterations 0
Saturation w  Min = 0.1601 Max = 0.52188
DICPCG:  Solving for p, Initial residual = 0.000115264, Final residual = 3.78247e-20, No Iterations 1
time step continuity errors : sum local = 1.22752e-17, global = -1.03519e-18, cumulative = -4.72337e-18
ExecutionTime = 0.07 s  ClockTime = 0 s

Coats Number mean: 0.0133633 max: 0.754632
deltaT = 16265.3
Time = 1.84111e+06

diagonal:  Solving for water.alpha, Initial residual = 0, Final residual = 0, No Iterations 0
Saturation w  Min = 0.1601 Max = 0.523029
DICPCG:  Solving for p, Initial residual = 0.000117194, Final residual = 3.57146e-20, No Iterations 1
time step continuity errors : sum local = 1.79628e-17, global = -1.22066e-18, cumulative = -5.94403e-18
ExecutionTime = 0.07 s  ClockTime = 0 s

Coats Number mean: 0.0134164 max: 0.754201
deltaT = 16149.4
Time = 1.85726e+06

diagonal:  Solving for water.alpha, Initial residual = 0, Final residual = 0, No Iterations 0
Saturation w  Min = 0.1601 Max = 0.524163
DICPCG:  Solving for p, Initial residual = 0.000118492, Final residual = 5.13068e-20, No Iterations 1
time step continuity errors : sum local = 1.77554e-17, global = -9.84893e-20, cumulative = -6.04252e-18
ExecutionTime = 0.07 s  ClockTime = 0 s

Coats Number mean: 0.0134674 max: 0.753706
deltaT = 16034.9
Time = 1.87329e+06

diagonal:  Solving for water.alpha, Initial residual = 0, Final residual = 0, No Iterations 0
Saturation w  Min = 0.1601 Max = 0.525282
DICPCG:  Solving for p, Initial residual = 0.000119242, Final residual = 3.30626e-20, No Iterations 1
time step continuity errors : sum local = 1.41335e-17, global = -5.56864e-19, cumulative = -6.59938e-18
ExecutionTime = 0.07 s  ClockTime = 0 s

Coats Number mean: 0.0135162 max: 0.753147
deltaT = 15959.2
Time = 1.88925e+06

diagonal:  Solving for water.alpha, Initial residual = 0, Final residual = 0, No Iterations 0
Saturation w  Min = 0.1601 Max = 0.526387
DICPCG:  Solving for p, Initial residual = 0.000119792, Final residual = 2.69884e-20, No Iterations 1
time step continuity errors : sum local = 1.11956e-17, global = -2.24399e-19, cumulative = -6.82378e-18
ExecutionTime = 0.08 s  ClockTime = 0 s

Coats Number mean: 0.0135954 max: 0.754313
deltaT = 15846.8
Time = 1.9051e+06

diagonal:  Solving for water.alpha, Initial residual = 0, Final residual = 0, No Iterations 0
Saturation w  Min = 0.1601 Max = 0.527477
DICPCG:  Solving for p, Initial residual = 0.000121458, Final residual = 2.93729e-20, No Iterations 1
time step continuity errors : sum local = 1.17154e-17, global = -4.8322e-19, cumulative = -7.307e-18
ExecutionTime = 0.08 s  ClockTime = 0 s

Coats Number mean: 0.0136405 max: 0.753628
deltaT = 15735.8
Time = 1.92083e+06

diagonal:  Solving for water.alpha, Initial residual = 0, Final residual = 0, No Iterations 0
Saturation w  Min = 0.1601 Max = 0.528552
DICPCG:  Solving for p, Initial residual = 0.000123542, Final residual = 9.93795e-21, No Iterations 1
time step continuity errors : sum local = 1.17746e-17, global = 9.86324e-20, cumulative = -7.20837e-18
ExecutionTime = 0.08 s  ClockTime = 0 s

Coats Number mean: 0.0136838 max: 0.752884
deltaT = 15662.4
Time = 1.93649e+06

diagonal:  Solving for water.alpha, Initial residual = 0, Final residual = 0, No Iterations 0
Saturation w  Min = 0.1601 Max = 0.529614
DICPCG:  Solving for p, Initial residual = 0.000125419, Final residual = 2.95923e-20, No Iterations 1
time step continuity errors : sum local = 9.92604e-18, global = 7.13741e-19, cumulative = -6.49463e-18
ExecutionTime = 0.08 s  ClockTime = 0 s

Coats Number mean: 0.0137576 max: 0.753845
deltaT = 15553.4
Time = 1.95205e+06

diagonal:  Solving for water.alpha, Initial residual = 0, Final residual = 0, No Iterations 0
Saturation w  Min = 0.1601 Max = 0.530661
DICPCG:  Solving for p, Initial residual = 0.000126502, Final residual = 4.46964e-20, No Iterations 1
time step continuity errors : sum local = 8.21018e-18, global = -5.26969e-21, cumulative = -6.4999e-18
ExecutionTime = 0.08 s  ClockTime = 0 s

Coats Number mean: 0.0137977 max: 0.752981
deltaT = 15481.4
Time = 1.96753e+06

diagonal:  Solving for water.alpha, Initial residual = 0, Final residual = 0, No Iterations 0
Saturation w  Min = 0.1601 Max = 0.531695
DICPCG:  Solving for p, Initial residual = 0.000127347, Final residual = 4.52252e-20, No Iterations 1
time step continuity errors : sum local = 7.81811e-18, global = 2.22925e-19, cumulative = -6.27697e-18
ExecutionTime = 0.08 s  ClockTime = 0 s

Coats Number mean: 0.0138686 max: 0.753811
deltaT = 15374.4
Time = 1.9829e+06

diagonal:  Solving for water.alpha, Initial residual = 0, Final residual = 0, No Iterations 0
Saturation w  Min = 0.1601 Max = 0.532715
DICPCG:  Solving for p, Initial residual = 0.000127365, Final residual = 2.2612e-20, No Iterations 1
time step continuity errors : sum local = 1.32778e-17, global = -1.18245e-18, cumulative = -7.45942e-18
ExecutionTime = 0.08 s  ClockTime = 0 s

Coats Number mean: 0.0139059 max: 0.752831
deltaT = 15303.7
Time = 1.99821e+06

diagonal:  Solving for water.alpha, Initial residual = 0, Final residual = 0, No Iterations 0
Saturation w  Min = 0.1601 Max = 0.533722
DICPCG:  Solving for p, Initial residual = 0.000127123, Final residual = 5.70584e-20, No Iterations 1
time step continuity errors : sum local = 1.29316e-17, global = -5.18508e-20, cumulative = -7.51127e-18
ExecutionTime = 0.08 s  ClockTime = 0 s

Coats Number mean: 0.0139741 max: 0.753536
deltaT = 15198.6
Time = 2.01341e+06

diagonal:  Solving for water.alpha, Initial residual = 0, Final residual = 0, No Iterations 0
Saturation w  Min = 0.1601 Max = 0.534714
DICPCG:  Solving for p, Initial residual = 0.000126039, Final residual = 2.17275e-20, No Iterations 1
time step continuity errors : sum local = 1.02938e-17, global = 2.57474e-19, cumulative = -7.2538e-18
ExecutionTime = 0.08 s  ClockTime = 0 s

Coats Number mean: 0.0140087 max: 0.752445
deltaT = 15129.2
Time = 2.02854e+06

diagonal:  Solving for water.alpha, Initial residual = 0, Final residual = 0, No Iterations 0
Saturation w  Min = 0.1601 Max = 0.535695
DICPCG:  Solving for p, Initial residual = 0.000124684, Final residual = 3.56815e-20, No Iterations 1
time step continuity errors : sum local = 1.31738e-17, global = -8.71416e-20, cumulative = -7.34094e-18
ExecutionTime = 0.08 s  ClockTime = 0 s

Coats Number mean: 0.0140745 max: 0.753029
deltaT = 15060.3
Time = 2.0436e+06

diagonal:  Solving for water.alpha, Initial residual = 0, Final residual = 0, No Iterations 0
Saturation w  Min = 0.1601 Max = 0.536663
DICPCG:  Solving for p, Initial residual = 0.000122772, Final residual = 3.2501e-20, No Iterations 1
time step continuity errors : sum local = 1.28152e-17, global = 8.64895e-19, cumulative = -6.47605e-18
ExecutionTime = 0.08 s  ClockTime = 0 s

Coats Number mean: 0.0141394 max: 0.753555
deltaT = 14957.8
Time = 2.05855e+06

diagonal:  Solving for water.alpha, Initial residual = 0, Final residual = 0, No Iterations 0
Saturation w  Min = 0.1601 Max = 0.537618
DICPCG:  Solving for p, Initial residual = 0.000120042, Final residual = 3.95652e-20, No Iterations 1
time step continuity errors : sum local = 1.06527e-17, global = -6.94304e-19, cumulative = -7.17035e-18
ExecutionTime = 0.09 s  ClockTime = 0 s

Coats Number mean: 0.0141708 max: 0.752307
deltaT = 14890.2
Time = 2.07344e+06

diagonal:  Solving for water.alpha, Initial residual = 0, Final residual = 0, No Iterations 0
Saturation w  Min = 0.1601 Max = 0.538561
DICPCG:  Solving for p, Initial residual = 0.000117057, Final residual = 2.5434e-20, No Iterations 1
time step continuity errors : sum local = 1.06348e-17, global = -3.43059e-19, cumulative = -7.51341e-18
ExecutionTime = 0.09 s  ClockTime = 0 s

Coats Number mean: 0.0142335 max: 0.75272
deltaT = 14822.9
Time = 2.08827e+06

diagonal:  Solving for water.alpha, Initial residual = 0, Final residual = 0, No Iterations 0
Saturation w  Min = 0.1601 Max = 0.539493
DICPCG:  Solving for p, Initial residual = 0.000113563, Final residual = 2.54332e-20, No Iterations 1
time step continuity errors : sum local = 7.74926e-18, global = 2.5111e-20, cumulative = -7.4883e-18
ExecutionTime = 0.09 s  ClockTime = 0 s

Coats Number mean: 0.0142954 max: 0.753081
deltaT = 14756.2
Time = 2.10302e+06

diagonal:  Solving for water.alpha, Initial residual = 0, Final residual = 0, No Iterations 0
Saturation w  Min = 0.1601 Max = 0.540414
DICPCG:  Solving for p, Initial residual = 0.000109589, Final residual = 1.05968e-20, No Iterations 1
time step continuity errors : sum local = 1.27639e-17, global = -5.04958e-19, cumulative = -7.99326e-18
ExecutionTime = 0.09 s  ClockTime = 0 s

Coats Number mean: 0.0143564 max: 0.75339
deltaT = 14656.9
Time = 2.11768e+06

diagonal:  Solving for water.alpha, Initial residual = 0, Final residual = 0, No Iterations 0
Saturation w  Min = 0.1601 Max = 0.541322
DICPCG:  Solving for p, Initial residual = 0.000104944, Final residual = 2.04865e-20, No Iterations 1
time step continuity errors : sum local = 9.38316e-18, global = 2.60712e-19, cumulative = -7.73254e-18
ExecutionTime = 0.09 s  ClockTime = 0 s

Coats Number mean: 0.0143841 max: 0.751951
deltaT = 14591.3
Time = 2.13227e+06

diagonal:  Solving for water.alpha, Initial residual = 0, Final residual = 0, No Iterations 0
Saturation w  Min = 0.1601 Max = 0.54222
DICPCG:  Solving for p, Initial residual = 0.000100157, Final residual = 4.30909e-20, No Iterations 1
time step continuity errors : sum local = 1.18501e-17, global = -4.64711e-19, cumulative = -8.19725e-18
ExecutionTime = 0.09 s  ClockTime = 0 s

Coats Number mean: 0.0144432 max: 0.75216
deltaT = 14526.2
Time = 2.1468e+06

diagonal:  Solving for water.alpha, Initial residual = 0, Final residual = 0, No Iterations 0
Saturation w  Min = 0.1601 Max = 0.543107
DICPCG:  Solving for p, Initial residual = 9.50316e-05, Final residual = 3.32001e-20, No Iterations 1
time step continuity errors : sum local = 1.19227e-17, global = 5.83217e-19, cumulative = -7.61404e-18
ExecutionTime = 0.09 s  ClockTime = 0 s

Coats Number mean: 0.0145016 max: 0.752321
deltaT = 14461.5
Time = 2.16126e+06

diagonal:  Solving for water.alpha, Initial residual = 0, Final residual = 0, No Iterations 0
Saturation w  Min = 0.1601 Max = 0.543984
DICPCG:  Solving for p, Initial residual = 8.96292e-05, Final residual = 1.90717e-20, No Iterations 1
time step continuity errors : sum local = 1.0603e-17, global = -1.71491e-19, cumulative = -7.78553e-18
ExecutionTime = 0.09 s  ClockTime = 0 s

Coats Number mean: 0.0145592 max: 0.752437
deltaT = 14397.2
Time = 2.17566e+06

diagonal:  Solving for water.alpha, Initial residual = 0, Final residual = 0, No Iterations 0
Saturation w  Min = 0.1601 Max = 0.544852
DICPCG:  Solving for p, Initial residual = 8.4016e-05, Final residual = 4.69714e-20, No Iterations 1
time step continuity errors : sum local = 1.16876e-17, global = -3.41457e-20, cumulative = -7.81967e-18
ExecutionTime = 0.09 s  ClockTime = 0 s

Coats Number mean: 0.014616 max: 0.752509
deltaT = 14333.4
Time = 2.18999e+06

diagonal:  Solving for water.alpha, Initial residual = 0, Final residual = 0, No Iterations 0
Saturation w  Min = 0.1601 Max = 0.545711
DICPCG:  Solving for p, Initial residual = 7.82628e-05, Final residual = 3.35499e-20, No Iterations 1
time step continuity errors : sum local = 1.33039e-17, global = -1.38405e-19, cumulative = -7.95808e-18
ExecutionTime = 0.09 s  ClockTime = 0 s

Coats Number mean: 0.014672 max: 0.752537
deltaT = 14269.9
Time = 2.20426e+06

diagonal:  Solving for water.alpha, Initial residual = 0, Final residual = 0, No Iterations 0
Saturation w  Min = 0.1601 Max = 0.54656
DICPCG:  Solving for p, Initial residual = 7.24426e-05, Final residual = 5.08528e-20, No Iterations 1
time step continuity errors : sum local = 1.11395e-17, global = -2.90091e-19, cumulative = -8.24817e-18
ExecutionTime = 0.09 s  ClockTime = 0 s

Coats Number mean: 0.0147271 max: 0.752524
deltaT = 14206.9
Time = 2.21847e+06

diagonal:  Solving for water.alpha, Initial residual = 0, Final residual = 0, No Iterations 0
Saturation w  Min = 0.1601 Max = 0.5474
DICPCG:  Solving for p, Initial residual = 6.66293e-05, Final residual = 2.18942e-20, No Iterations 1
time step continuity errors : sum local = 9.87729e-18, global = 4.13961e-19, cumulative = -7.83421e-18
ExecutionTime = 0.09 s  ClockTime = 0 s

Coats Number mean: 0.0147815 max: 0.752471
deltaT = 14144.3
Time = 2.23261e+06

diagonal:  Solving for water.alpha, Initial residual = 0, Final residual = 0, No Iterations 0
Saturation w  Min = 0.1601 Max = 0.548232
DICPCG:  Solving for p, Initial residual = 6.08953e-05, Final residual = 1.94217e-20, No Iterations 1
time step continuity errors : sum local = 8.08939e-18, global = 5.36737e-19, cumulative = -7.29747e-18
ExecutionTime = 0.09 s  ClockTime = 0 s

Coats Number mean: 0.0148349 max: 0.752379
deltaT = 14082.2
Time = 2.24669e+06

diagonal:  Solving for water.alpha, Initial residual = 0, Final residual = 0, No Iterations 0
Saturation w  Min = 0.1601 Max = 0.549055
DICPCG:  Solving for p, Initial residual = 5.53098e-05, Final residual = 2.2599e-20, No Iterations 1
time step continuity errors : sum local = 6.73459e-18, global = 4.31796e-19, cumulative = -6.86568e-18
ExecutionTime = 0.09 s  ClockTime = 0 s

Coats Number mean: 0.0148875 max: 0.752249
deltaT = 14020.4
Time = 2.26071e+06

diagonal:  Solving for water.alpha, Initial residual = 0, Final residual = 0, No Iterations 0
Saturation w  Min = 0.1601 Max = 0.549871
DICPCG:  Solving for p, Initial residual = 4.99369e-05, Final residual = 1.97735e-20, No Iterations 1
time step continuity errors : sum local = 9.8545e-18, global = -7.57673e-19, cumulative = -7.62335e-18
ExecutionTime = 0.09 s  ClockTime = 0 s

Coats Number mean: 0.0149391 max: 0.752083
deltaT = 13959.1
Time = 2.27467e+06

diagonal:  Solving for water.alpha, Initial residual = 0, Final residual = 0, No Iterations 0
Saturation w  Min = 0.1601 Max = 0.550678
DICPCG:  Solving for p, Initial residual = 4.48338e-05, Final residual = 3.00124e-20, No Iterations 1
time step continuity errors : sum local = 9.70023e-18, global = 5.67541e-19, cumulative = -7.05581e-18
ExecutionTime = 0.09 s  ClockTime = 0 s

Coats Number mean: 0.0149898 max: 0.751883
deltaT = 13898.1
Time = 2.28857e+06

diagonal:  Solving for water.alpha, Initial residual = 0, Final residual = 0, No Iterations 0
Saturation w  Min = 0.1601 Max = 0.551478
DICPCG:  Solving for p, Initial residual = 4.00498e-05, Final residual = 2.90406e-20, No Iterations 1
time step continuity errors : sum local = 7.99093e-18, global = 2.11899e-19, cumulative = -6.84391e-18
ExecutionTime = 0.09 s  ClockTime = 0 s

Coats Number mean: 0.0150396 max: 0.751648
deltaT = 13837.5
Time = 2.30241e+06

diagonal:  Solving for water.alpha, Initial residual = 0, Final residual = 0, No Iterations 0
Saturation w  Min = 0.1601 Max = 0.55227
DICPCG:  Solving for p, Initial residual = 4.16799e-05, Final residual = 2.75392e-20, No Iterations 1
time step continuity errors : sum local = 7.04658e-18, global = 1.4065e-20, cumulative = -6.82984e-18
ExecutionTime = 0.09 s  ClockTime = 0 s

Coats Number mean: 0.0150884 max: 0.75138
deltaT = 13807.4
Time = 2.31621e+06

diagonal:  Solving for water.alpha, Initial residual = 0, Final residual = 0, No Iterations 0
Saturation w  Min = 0.1601 Max = 0.553057
DICPCG:  Solving for p, Initial residual = 4.47987e-05, Final residual = 3.54383e-20, No Iterations 1
time step continuity errors : sum local = 1.16883e-17, global = 1.36835e-18, cumulative = -5.46149e-18
ExecutionTime = 0.09 s  ClockTime = 0 s

Coats Number mean: 0.0151694 max: 0.752724
deltaT = 13747.4
Time = 2.32996e+06

diagonal:  Solving for water.alpha, Initial residual = 0, Final residual = 0, No Iterations 0
Saturation w  Min = 0.1601 Max = 0.553836
DICPCG:  Solving for p, Initial residual = 4.98043e-05, Final residual = 3.67177e-20, No Iterations 1
time step continuity errors : sum local = 1.53148e-17, global = -6.05512e-20, cumulative = -5.52204e-18
ExecutionTime = 0.09 s  ClockTime = 0 s

Coats Number mean: 0.0152163 max: 0.752392
deltaT = 13687.7
Time = 2.34365e+06

diagonal:  Solving for water.alpha, Initial residual = 0, Final residual = 0, No Iterations 0
Saturation w  Min = 0.1601 Max = 0.554609
DICPCG:  Solving for p, Initial residual = 5.47467e-05, Final residual = 2.43601e-20, No Iterations 1
time step continuity errors : sum local = 9.24965e-18, global = 1.64634e-19, cumulative = -5.35741e-18
ExecutionTime = 0.09 s  ClockTime = 0 s

Coats Number mean: 0.0152623 max: 0.75203
deltaT = 13628.5
Time = 2.35728e+06

diagonal:  Solving for water.alpha, Initial residual = 0, Final residual = 0, No Iterations 0
Saturation w  Min = 0.1601 Max = 0.555375
DICPCG:  Solving for p, Initial residual = 5.92462e-05, Final residual = 2.18886e-20, No Iterations 1
time step continuity errors : sum local = 6.8339e-18, global = -4.4328e-19, cumulative = -5.80069e-18
ExecutionTime = 0.09 s  ClockTime = 0 s

Coats Number mean: 0.0153072 max: 0.751639
deltaT = 13569.6
Time = 2.37085e+06

diagonal:  Solving for water.alpha, Initial residual = 0, Final residual = 0, No Iterations 0
Saturation w  Min = 0.1601 Max = 0.556134
DICPCG:  Solving for p, Initial residual = 6.33092e-05, Final residual = 3.45969e-20, No Iterations 1
time step continuity errors : sum local = 1.22594e-17, global = -1.08043e-19, cumulative = -5.90873e-18
ExecutionTime = 0.1 s  ClockTime = 0 s

Coats Number mean: 0.015351 max: 0.75122
deltaT = 13540.3
Time = 2.38439e+06

diagonal:  Solving for water.alpha, Initial residual = 0, Final residual = 0, No Iterations 0
Saturation w  Min = 0.1601 Max = 0.556889
DICPCG:  Solving for p, Initial residual = 6.70965e-05, Final residual = 1.90633e-20, No Iterations 1
time step continuity errors : sum local = 1.2304e-17, global = 1.37629e-20, cumulative = -5.89497e-18
ExecutionTime = 0.1 s  ClockTime = 0 s

Coats Number mean: 0.0154272 max: 0.752401
deltaT = 13481.9
Time = 2.39787e+06

diagonal:  Solving for water.alpha, Initial residual = 0, Final residual = 0, No Iterations 0
Saturation w  Min = 0.1601 Max = 0.557637
DICPCG:  Solving for p, Initial residual = 7.03431e-05, Final residual = 3.9183e-20, No Iterations 1
time step continuity errors : sum local = 9.29786e-18, global = 7.42276e-19, cumulative = -5.15269e-18
ExecutionTime = 0.1 s  ClockTime = 0 s

Coats Number mean: 0.0154691 max: 0.751925
deltaT = 13423.9
Time = 2.41129e+06

diagonal:  Solving for water.alpha, Initial residual = 0, Final residual = 0, No Iterations 0
Saturation w  Min = 0.1601 Max = 0.558379
DICPCG:  Solving for p, Initial residual = 7.32028e-05, Final residual = 2.6476e-20, No Iterations 1
time step continuity errors : sum local = 9.10323e-18, global = -8.57337e-19, cumulative = -6.01003e-18
ExecutionTime = 0.1 s  ClockTime = 0 s

Coats Number mean: 0.0155099 max: 0.751423
deltaT = 13395.1
Time = 2.42469e+06

diagonal:  Solving for water.alpha, Initial residual = 0, Final residual = 0, No Iterations 0
Saturation w  Min = 0.1601 Max = 0.559116
DICPCG:  Solving for p, Initial residual = 7.58653e-05, Final residual = 1.76538e-20, No Iterations 1
time step continuity errors : sum local = 1.03317e-17, global = -8.01032e-19, cumulative = -6.81106e-18
ExecutionTime = 0.1 s  ClockTime = 0 s

Coats Number mean: 0.0155834 max: 0.752516
deltaT = 13337.6
Time = 2.43803e+06

diagonal:  Solving for water.alpha, Initial residual = 0, Final residual = 0, No Iterations 0
Saturation w  Min = 0.1601 Max = 0.559848
DICPCG:  Solving for p, Initial residual = 7.80341e-05, Final residual = 1.87067e-20, No Iterations 1
time step continuity errors : sum local = 1.2635e-17, global = -9.80611e-19, cumulative = -7.79167e-18
ExecutionTime = 0.1 s  ClockTime = 0 s

Coats Number mean: 0.0156223 max: 0.751961
deltaT = 13280.5
Time = 2.45131e+06

diagonal:  Solving for water.alpha, Initial residual = 0, Final residual = 0, No Iterations 0
Saturation w  Min = 0.1601 Max = 0.560573
DICPCG:  Solving for p, Initial residual = 7.98896e-05, Final residual = 1.58991e-20, No Iterations 1
time step continuity errors : sum local = 1.03626e-17, global = 6.29943e-20, cumulative = -7.72868e-18
ExecutionTime = 0.1 s  ClockTime = 0 s

Coats Number mean: 0.0156602 max: 0.751381
deltaT = 13252
Time = 2.46456e+06

diagonal:  Solving for water.alpha, Initial residual = 0, Final residual = 0, No Iterations 0
Saturation w  Min = 0.1601 Max = 0.561294
DICPCG:  Solving for p, Initial residual = 8.1633e-05, Final residual = 2.36577e-20, No Iterations 1
time step continuity errors : sum local = 8.33561e-18, global = 5.59e-19, cumulative = -7.16968e-18
ExecutionTime = 0.1 s  ClockTime = 0 s

Coats Number mean: 0.0157308 max: 0.752389
deltaT = 13195.4
Time = 2.47775e+06

diagonal:  Solving for water.alpha, Initial residual = 0, Final residual = 0, No Iterations 0
Saturation w  Min = 0.1601 Max = 0.562009
DICPCG:  Solving for p, Initial residual = 8.29413e-05, Final residual = 3.45976e-20, No Iterations 1
time step continuity errors : sum local = 6.32391e-18, global = 2.70482e-19, cumulative = -6.8992e-18
ExecutionTime = 0.1 s  ClockTime = 0 s

Coats Number mean: 0.0157668 max: 0.751759
deltaT = 13139.1
Time = 2.49089e+06

diagonal:  Solving for water.alpha, Initial residual = 0, Final residual = 0, No Iterations 0
Saturation w  Min = 0.1601 Max = 0.562718
DICPCG:  Solving for p, Initial residual = 8.40058e-05, Final residual = 2.61377e-20, No Iterations 1
time step continuity errors : sum local = 8.87225e-18, global = 7.07821e-19, cumulative = -6.19138e-18
ExecutionTime = 0.11 s  ClockTime = 0 s

Coats Number mean: 0.0158019 max: 0.751104
deltaT = 13111.1
Time = 2.504e+06

diagonal:  Solving for water.alpha, Initial residual = 0, Final residual = 0, No Iterations 0
Saturation w  Min = 0.1601 Max = 0.563423
DICPCG:  Solving for p, Initial residual = 8.50276e-05, Final residual = 3.54888e-20, No Iterations 1
time step continuity errors : sum local = 8.9444e-18, global = 1.75467e-19, cumulative = -6.01591e-18
ExecutionTime = 0.11 s  ClockTime = 0 s

Coats Number mean: 0.0158699 max: 0.752032
deltaT = 13055.3
Time = 2.51706e+06

diagonal:  Solving for water.alpha, Initial residual = 0, Final residual = 0, No Iterations 0
Saturation w  Min = 0.1601 Max = 0.564123
DICPCG:  Solving for p, Initial residual = 8.56632e-05, Final residual = 3.84873e-20, No Iterations 1
time step continuity errors : sum local = 1.0355e-17, global = 1.01736e-19, cumulative = -5.91417e-18
ExecutionTime = 0.11 s  ClockTime = 0 s

Coats Number mean: 0.0159032 max: 0.751329
deltaT = 13027.5
Time = 2.53009e+06

diagonal:  Solving for water.alpha, Initial residual = 0, Final residual = 0, No Iterations 0
Saturation w  Min = 0.1601 Max = 0.564818
DICPCG:  Solving for p, Initial residual = 8.70603e-05, Final residual = 1.65413e-20, No Iterations 1
time step continuity errors : sum local = 8.85208e-18, global = 4.03872e-19, cumulative = -5.5103e-18
ExecutionTime = 0.11 s  ClockTime = 0 s

Coats Number mean: 0.0159697 max: 0.752206
deltaT = 12972.2
Time = 2.54306e+06

diagonal:  Solving for water.alpha, Initial residual = 0, Final residual = 0, No Iterations 0
Saturation w  Min = 0.1601 Max = 0.565507
DICPCG:  Solving for p, Initial residual = 8.8605e-05, Final residual = 4.38442e-20, No Iterations 1
time step continuity errors : sum local = 7.59263e-18, global = 3.66996e-19, cumulative = -5.14331e-18
ExecutionTime = 0.11 s  ClockTime = 0 s

Coats Number mean: 0.0160013 max: 0.751455
deltaT = 12944.7
Time = 2.556e+06

diagonal:  Solving for water.alpha, Initial residual = 0, Final residual = 0, No Iterations 0
Saturation w  Min = 0.1601 Max = 0.566192
DICPCG:  Solving for p, Initial residual = 9.01559e-05, Final residual = 3.09634e-20, No Iterations 1
time step continuity errors : sum local = 1.07255e-17, global = -5.54807e-19, cumulative = -5.69811e-18
ExecutionTime = 0.11 s  ClockTime = 0 s

Coats Number mean: 0.0160663 max: 0.752281
deltaT = 12889.8
Time = 2.56889e+06

diagonal:  Solving for water.alpha, Initial residual = 0, Final residual = 0, No Iterations 0
Saturation w  Min = 0.1601 Max = 0.566872
DICPCG:  Solving for p, Initial residual = 9.1331e-05, Final residual = 2.88454e-20, No Iterations 1
time step continuity errors : sum local = 1.19357e-17, global = 3.49379e-19, cumulative = -5.34873e-18
ExecutionTime = 0.11 s  ClockTime = 0 s

Coats Number mean: 0.0160963 max: 0.751483
deltaT = 12862.5
Time = 2.58176e+06

diagonal:  Solving for water.alpha, Initial residual = 0, Final residual = 0, No Iterations 0
Saturation w  Min = 0.1601 Max = 0.567548
DICPCG:  Solving for p, Initial residual = 9.25016e-05, Final residual = 5.39841e-20, No Iterations 1
time step continuity errors : sum local = 9.5854e-18, global = 1.63425e-19, cumulative = -5.18531e-18
ExecutionTime = 0.11 s  ClockTime = 0 s

Coats Number mean: 0.0161599 max: 0.75226
deltaT = 12808.1
Time = 2.59457e+06

diagonal:  Solving for water.alpha, Initial residual = 0, Final residual = 0, No Iterations 0
Saturation w  Min = 0.1601 Max = 0.568217
DICPCG:  Solving for p, Initial residual = 9.32765e-05, Final residual = 2.94609e-20, No Iterations 1
time step continuity errors : sum local = 1.16799e-17, global = -5.18578e-19, cumulative = -5.70389e-18
ExecutionTime = 0.11 s  ClockTime = 0 s

Coats Number mean: 0.0161885 max: 0.751416
deltaT = 12781
Time = 2.60735e+06

diagonal:  Solving for water.alpha, Initial residual = 0, Final residual = 0, No Iterations 0
Saturation w  Min = 0.1601 Max = 0.568883
DICPCG:  Solving for p, Initial residual = 9.40365e-05, Final residual = 4.4631e-20, No Iterations 1
time step continuity errors : sum local = 1.1705e-17, global = 8.66077e-21, cumulative = -5.69523e-18
ExecutionTime = 0.11 s  ClockTime = 0 s

Coats Number mean: 0.0162509 max: 0.752143
deltaT = 12727.1
Time = 2.62007e+06

diagonal:  Solving for water.alpha, Initial residual = 0, Final residual = 0, No Iterations 0
Saturation w  Min = 0.1601 Max = 0.569543
DICPCG:  Solving for p, Initial residual = 9.43844e-05, Final residual = 3.32516e-20, No Iterations 1
time step continuity errors : sum local = 6.44446e-18, global = 5.32546e-19, cumulative = -5.16268e-18
ExecutionTime = 0.11 s  ClockTime = 0 s

Coats Number mean: 0.0162781 max: 0.751254
deltaT = 12700.3
Time = 2.63277e+06

diagonal:  Solving for water.alpha, Initial residual = 0, Final residual = 0, No Iterations 0
Saturation w  Min = 0.1601 Max = 0.570199
DICPCG:  Solving for p, Initial residual = 9.47074e-05, Final residual = 5.9798e-20, No Iterations 1
time step continuity errors : sum local = 7.82289e-18, global = 2.88302e-19, cumulative = -4.87438e-18
ExecutionTime = 0.11 s  ClockTime = 0 s

Coats Number mean: 0.0163392 max: 0.751933
deltaT = 12646.8
Time = 2.64542e+06

diagonal:  Solving for water.alpha, Initial residual = 0, Final residual = 0, No Iterations 0
Saturation w  Min = 0.1601 Max = 0.57085
DICPCG:  Solving for p, Initial residual = 9.46067e-05, Final residual = 2.41653e-20, No Iterations 1
time step continuity errors : sum local = 7.89921e-18, global = 2.46382e-19, cumulative = -4.628e-18
ExecutionTime = 0.11 s  ClockTime = 0 s

Coats Number mean: 0.0163651 max: 0.751
deltaT = 12620.2
Time = 2.65804e+06

diagonal:  Solving for water.alpha, Initial residual = 0, Final residual = 0, No Iterations 0
Saturation w  Min = 0.1601 Max = 0.571496
DICPCG:  Solving for p, Initial residual = 9.44729e-05, Final residual = 4.65651e-20, No Iterations 1
time step continuity errors : sum local = 9.87728e-18, global = -1.28276e-20, cumulative = -4.64082e-18
ExecutionTime = 0.11 s  ClockTime = 0 s

Coats Number mean: 0.0164251 max: 0.75163
deltaT = 12567.1
Time = 2.67061e+06

diagonal:  Solving for water.alpha, Initial residual = 0, Final residual = 0, No Iterations 0
Saturation w  Min = 0.1601 Max = 0.572137
DICPCG:  Solving for p, Initial residual = 9.39095e-05, Final residual = 1.56975e-20, No Iterations 1
time step continuity errors : sum local = 1.05894e-17, global = -4.17276e-19, cumulative = -5.0581e-18
ExecutionTime = 0.11 s  ClockTime = 0 s

Coats Number mean: 0.0164499 max: 0.750654
deltaT = 12540.7
Time = 2.68315e+06

diagonal:  Solving for water.alpha, Initial residual = 0, Final residual = 0, No Iterations 0
Saturation w  Min = 0.1601 Max = 0.572774
DICPCG:  Solving for p, Initial residual = 9.33072e-05, Final residual = 3.42159e-20, No Iterations 1
time step continuity errors : sum local = 1.20097e-17, global = 6.161e-20, cumulative = -4.99649e-18
ExecutionTime = 0.12 s  ClockTime = 0 s

Coats Number mean: 0.0165088 max: 0.751238
deltaT = 12514.4
Time = 2.69566e+06

diagonal:  Solving for water.alpha, Initial residual = 0, Final residual = 0, No Iterations 0
Saturation w  Min = 0.1601 Max = 0.573407
DICPCG:  Solving for p, Initial residual = 9.24679e-05, Final residual = 3.77419e-20, No Iterations 1
time step continuity errors : sum local = 1.10008e-17, global = -3.03163e-19, cumulative = -5.29965e-18
ExecutionTime = 0.12 s  ClockTime = 0 s

Coats Number mean: 0.0165674 max: 0.751799
deltaT = 12461.9
Time = 2.70812e+06

diagonal:  Solving for water.alpha, Initial residual = 0, Final residual = 0, No Iterations 0
Saturation w  Min = 0.1601 Max = 0.574035
DICPCG:  Solving for p, Initial residual = 9.1203e-05, Final residual = 2.01048e-20, No Iterations 1
time step continuity errors : sum local = 1.01714e-17, global = 3.5467e-19, cumulative = -4.94498e-18
ExecutionTime = 0.12 s  ClockTime = 0 s

Coats Number mean: 0.0165905 max: 0.750758
deltaT = 12435.8
Time = 2.72056e+06

diagonal:  Solving for water.alpha, Initial residual = 0, Final residual = 0, No Iterations 0
Saturation w  Min = 0.1601 Max = 0.574658
DICPCG:  Solving for p, Initial residual = 8.9898e-05, Final residual = 4.28534e-20, No Iterations 1
time step continuity errors : sum local = 9.51599e-18, global = -2.21204e-19, cumulative = -5.16619e-18
ExecutionTime = 0.12 s  ClockTime = 0 s

Coats Number mean: 0.0166481 max: 0.751274
deltaT = 12409.7
Time = 2.73297e+06

diagonal:  Solving for water.alpha, Initial residual = 0, Final residual = 0, No Iterations 0
Saturation w  Min = 0.1601 Max = 0.575278
DICPCG:  Solving for p, Initial residual = 8.83637e-05, Final residual = 3.42109e-20, No Iterations 1
time step continuity errors : sum local = 8.91791e-18, global = 3.40571e-19, cumulative = -4.82561e-18
ExecutionTime = 0.12 s  ClockTime = 0 s

Coats Number mean: 0.0167054 max: 0.751768
deltaT = 12357.8
Time = 2.74533e+06

diagonal:  Solving for water.alpha, Initial residual = 0, Final residual = 0, No Iterations 0
Saturation w  Min = 0.1601 Max = 0.575892
DICPCG:  Solving for p, Initial residual = 8.6428e-05, Final residual = 1.12856e-20, No Iterations 1
time step continuity errors : sum local = 5.43471e-18, global = 5.06625e-19, cumulative = -4.31899e-18
ExecutionTime = 0.13 s  ClockTime = 0 s

Coats Number mean: 0.0167271 max: 0.750663
deltaT = 12331.9
Time = 2.75766e+06

diagonal:  Solving for water.alpha, Initial residual = 0, Final residual = 0, No Iterations 0
Saturation w  Min = 0.1601 Max = 0.576502
DICPCG:  Solving for p, Initial residual = 8.44639e-05, Final residual = 2.7155e-20, No Iterations 1
time step continuity errors : sum local = 9.59739e-18, global = -4.80496e-19, cumulative = -4.79949e-18
ExecutionTime = 0.13 s  ClockTime = 0 s

Coats Number mean: 0.0167835 max: 0.751113
deltaT = 12306.2
Time = 2.76997e+06

diagonal:  Solving for water.alpha, Initial residual = 0, Final residual = 0, No Iterations 0
Saturation w  Min = 0.1601 Max = 0.577108
DICPCG:  Solving for p, Initial residual = 8.22965e-05, Final residual = 4.79603e-20, No Iterations 1
time step continuity errors : sum local = 8.6225e-18, global = 6.08745e-19, cumulative = -4.19074e-18
ExecutionTime = 0.13 s  ClockTime = 0 s

Coats Number mean: 0.0168395 max: 0.751542
deltaT = 12280.4
Time = 2.78225e+06

diagonal:  Solving for water.alpha, Initial residual = 0, Final residual = 0, No Iterations 0
Saturation w  Min = 0.1601 Max = 0.577711
DICPCG:  Solving for p, Initial residual = 7.99382e-05, Final residual = 1.97476e-20, No Iterations 1
time step continuity errors : sum local = 8.70016e-18, global = -5.82507e-20, cumulative = -4.24899e-18
ExecutionTime = 0.13 s  ClockTime = 0 s

Coats Number mean: 0.0168952 max: 0.751951
deltaT = 12229.1
Time = 2.79448e+06

diagonal:  Solving for water.alpha, Initial residual = 0, Final residual = 0, No Iterations 0
Saturation w  Min = 0.1601 Max = 0.578308
DICPCG:  Solving for p, Initial residual = 7.72459e-05, Final residual = 3.20886e-20, No Iterations 1
time step continuity errors : sum local = 1.01182e-17, global = -4.97207e-19, cumulative = -4.7462e-18
ExecutionTime = 0.13 s  ClockTime = 0 s

Coats Number mean: 0.016915 max: 0.750764
deltaT = 12203.6
Time = 2.80668e+06

diagonal:  Solving for water.alpha, Initial residual = 0, Final residual = 0, No Iterations 0
Saturation w  Min = 0.1601 Max = 0.578902
DICPCG:  Solving for p, Initial residual = 7.45642e-05, Final residual = 1.37517e-20, No Iterations 1
time step continuity errors : sum local = 7.29782e-18, global = 6.32615e-19, cumulative = -4.11358e-18
ExecutionTime = 0.13 s  ClockTime = 0 s

Coats Number mean: 0.0169699 max: 0.75113
deltaT = 12178.1
Time = 2.81886e+06

diagonal:  Solving for water.alpha, Initial residual = 0, Final residual = 0, No Iterations 0
Saturation w  Min = 0.1601 Max = 0.579492
DICPCG:  Solving for p, Initial residual = 7.17433e-05, Final residual = 4.93632e-20, No Iterations 1
time step continuity errors : sum local = 7.8231e-18, global = 5.36394e-20, cumulative = -4.05994e-18
ExecutionTime = 0.13 s  ClockTime = 0 s

Coats Number mean: 0.0170244 max: 0.751476
deltaT = 12152.7
Time = 2.83101e+06

diagonal:  Solving for water.alpha, Initial residual = 0, Final residual = 0, No Iterations 0
Saturation w  Min = 0.1601 Max = 0.580078
DICPCG:  Solving for p, Initial residual = 6.88037e-05, Final residual = 3.06745e-20, No Iterations 1
time step continuity errors : sum local = 9.27054e-18, global = 5.08511e-19, cumulative = -3.55143e-18
ExecutionTime = 0.13 s  ClockTime = 0 s

Coats Number mean: 0.0170786 max: 0.751802
deltaT = 12102.1
Time = 2.84311e+06

diagonal:  Solving for water.alpha, Initial residual = 0, Final residual = 0, No Iterations 0
Saturation w  Min = 0.1601 Max = 0.580659
DICPCG:  Solving for p, Initial residual = 6.56345e-05, Final residual = 1.69232e-20, No Iterations 1
time step continuity errors : sum local = 8.14532e-18, global = 2.4807e-19, cumulative = -3.30336e-18
ExecutionTime = 0.13 s  ClockTime = 0 s

Coats Number mean: 0.0170966 max: 0.750538
deltaT = 12076.8
Time = 2.85519e+06

diagonal:  Solving for water.alpha, Initial residual = 0, Final residual = 0, No Iterations 0
Saturation w  Min = 0.1601 Max = 0.581237
DICPCG:  Solving for p, Initial residual = 6.25386e-05, Final residual = 1.41021e-20, No Iterations 1
time step continuity errors : sum local = 7.20974e-18, global = 6.54687e-20, cumulative = -3.23789e-18
ExecutionTime = 0.13 s  ClockTime = 0 s

Coats Number mean: 0.0171499 max: 0.750823
deltaT = 12051.7
Time = 2.86724e+06

diagonal:  Solving for water.alpha, Initial residual = 0, Final residual = 0, No Iterations 0
Saturation w  Min = 0.1601 Max = 0.581811
DICPCG:  Solving for p, Initial residual = 5.93942e-05, Final residual = 1.41015e-20, No Iterations 1
time step continuity errors : sum local = 7.3948e-18, global = 7.71738e-19, cumulative = -2.46616e-18
ExecutionTime = 0.13 s  ClockTime = 0 s

Coats Number mean: 0.0172028 max: 0.75109
deltaT = 12026.6
Time = 2.87927e+06

diagonal:  Solving for water.alpha, Initial residual = 0, Final residual = 0, No Iterations 0
Saturation w  Min = 0.1601 Max = 0.582381
DICPCG:  Solving for p, Initial residual = 5.6226e-05, Final residual = 3.7015e-20, No Iterations 1
time step continuity errors : sum local = 6.02658e-18, global = 2.52635e-19, cumulative = -2.21352e-18
ExecutionTime = 0.14 s  ClockTime = 0 s

Coats Number mean: 0.0172554 max: 0.751338
deltaT = 12001.5
Time = 2.89127e+06

diagonal:  Solving for water.alpha, Initial residual = 0, Final residual = 0, No Iterations 0
Saturation w  Min = 0.1601 Max = 0.582948
DICPCG:  Solving for p, Initial residual = 5.30588e-05, Final residual = 2.15031e-20, No Iterations 1
time step continuity errors : sum local = 9.92171e-18, global = -3.53766e-19, cumulative = -2.56729e-18
ExecutionTime = 0.14 s  ClockTime = 0 s

Coats Number mean: 0.0173077 max: 0.751568
deltaT = 11951.6
Time = 2.90322e+06

diagonal:  Solving for water.alpha, Initial residual = 0, Final residual = 0, No Iterations 0
Saturation w  Min = 0.1601 Max = 0.583511
DICPCG:  Solving for p, Initial residual = 4.9817e-05, Final residual = 2.78472e-20, No Iterations 1
time step continuity errors : sum local = 9.6132e-18, global = 1.53876e-19, cumulative = -2.41341e-18
ExecutionTime = 0.14 s  ClockTime = 0 s

Coats Number mean: 0.0173232 max: 0.750212
deltaT = 11926.8
Time = 2.91515e+06

diagonal:  Solving for water.alpha, Initial residual = 0, Final residual = 0, No Iterations 0
Saturation w  Min = 0.1601 Max = 0.58407
DICPCG:  Solving for p, Initial residual = 4.67375e-05, Final residual = 2.22064e-20, No Iterations 1
time step continuity errors : sum local = 8.21323e-18, global = 4.18238e-19, cumulative = -1.99517e-18
ExecutionTime = 0.14 s  ClockTime = 0 s

Coats Number mean: 0.0173745 max: 0.750404
deltaT = 11902
Time = 2.92705e+06

diagonal:  Solving for water.alpha, Initial residual = 0, Final residual = 0, No Iterations 0
Saturation w  Min = 0.1601 Max = 0.584626
DICPCG:  Solving for p, Initial residual = 4.37295e-05, Final residual = 2.714e-20, No Iterations 1
time step continuity errors : sum local = 7.88766e-18, global = 1.29042e-19, cumulative = -1.86613e-18
ExecutionTime = 0.14 s  ClockTime = 0 s

Coats Number mean: 0.0174253 max: 0.750579
deltaT = 11877.2
Time = 2.93893e+06

diagonal:  Solving for water.alpha, Initial residual = 0, Final residual = 0, No Iterations 0
Saturation w  Min = 0.1601 Max = 0.585179
DICPCG:  Solving for p, Initial residual = 4.08143e-05, Final residual = 2.00899e-20, No Iterations 1
time step continuity errors : sum local = 9.86524e-18, global = -1.14689e-19, cumulative = -1.98082e-18
ExecutionTime = 0.14 s  ClockTime = 0 s

Coats Number mean: 0.0174758 max: 0.750735
deltaT = 11852.5
Time = 2.95078e+06

diagonal:  Solving for water.alpha, Initial residual = 0, Final residual = 0, No Iterations 0
Saturation w  Min = 0.1601 Max = 0.585728
DICPCG:  Solving for p, Initial residual = 3.80111e-05, Final residual = 1.51549e-20, No Iterations 1
time step continuity errors : sum local = 8.6942e-18, global = 2.0079e-19, cumulative = -1.78003e-18
ExecutionTime = 0.14 s  ClockTime = 0 s

Coats Number mean: 0.0175258 max: 0.750875
deltaT = 11827.9
Time = 2.96261e+06

diagonal:  Solving for water.alpha, Initial residual = 0, Final residual = 0, No Iterations 0
Saturation w  Min = 0.1601 Max = 0.586275
DICPCG:  Solving for p, Initial residual = 3.53374e-05, Final residual = 1.83263e-20, No Iterations 1
time step continuity errors : sum local = 1.03132e-17, global = 9.01676e-20, cumulative = -1.68986e-18
ExecutionTime = 0.15 s  ClockTime = 0 s

Coats Number mean: 0.0175753 max: 0.750997
deltaT = 11803.3
Time = 2.97441e+06

diagonal:  Solving for water.alpha, Initial residual = 0, Final residual = 0, No Iterations 0
Saturation w  Min = 0.1601 Max = 0.586818
DICPCG:  Solving for p, Initial residual = 3.2808e-05, Final residual = 2.05723e-20, No Iterations 1
time step continuity errors : sum local = 9.46591e-18, global = -6.23862e-19, cumulative = -2.31372e-18
ExecutionTime = 0.15 s  ClockTime = 0 s

Coats Number mean: 0.0176244 max: 0.751103
deltaT = 11778.8
Time = 2.98619e+06

diagonal:  Solving for water.alpha, Initial residual = 0, Final residual = 0, No Iterations 0
Saturation w  Min = 0.1601 Max = 0.587358
DICPCG:  Solving for p, Initial residual = 3.41467e-05, Final residual = 2.20251e-20, No Iterations 1
time step continuity errors : sum local = 9.85329e-18, global = -3.23255e-19, cumulative = -2.63698e-18
ExecutionTime = 0.15 s  ClockTime = 0 s

Coats Number mean: 0.0176731 max: 0.751191
deltaT = 11754.3
Time = 2.99794e+06

diagonal:  Solving for water.alpha, Initial residual = 0, Final residual = 0, No Iterations 0
Saturation w  Min = 0.1601 Max = 0.587896
DICPCG:  Solving for p, Initial residual = 3.60586e-05, Final residual = 1.38314e-20, No Iterations 1
time step continuity errors : sum local = 8.66394e-18, global = 3.38513e-20, cumulative = -2.60313e-18
ExecutionTime = 0.15 s  ClockTime = 0 s

Coats Number mean: 0.0177213 max: 0.751264
deltaT = 11729.8
Time = 3.00967e+06

diagonal:  Solving for water.alpha, Initial residual = 0, Final residual = 0, No Iterations 0
Saturation w  Min = 0.1601 Max = 0.58843
DICPCG:  Solving for p, Initial residual = 3.82369e-05, Final residual = 2.08122e-20, No Iterations 1
time step continuity errors : sum local = 8.32203e-18, global = -2.74222e-19, cumulative = -2.87735e-18
ExecutionTime = 0.15 s  ClockTime = 0 s

Coats Number mean: 0.017769 max: 0.75132
deltaT = 11705.5
Time = 3.02138e+06

diagonal:  Solving for water.alpha, Initial residual = 0, Final residual = 0, No Iterations 0
Saturation w  Min = 0.1601 Max = 0.588962
DICPCG:  Solving for p, Initial residual = 4.12629e-05, Final residual = 1.12758e-20, No Iterations 1
time step continuity errors : sum local = 9.16138e-18, global = -2.4589e-19, cumulative = -3.12324e-18
ExecutionTime = 0.15 s  ClockTime = 0 s

Coats Number mean: 0.0178162 max: 0.75136
deltaT = 11681.1
Time = 3.03306e+06

diagonal:  Solving for water.alpha, Initial residual = 0, Final residual = 0, No Iterations 0
Saturation w  Min = 0.1601 Max = 0.58949
DICPCG:  Solving for p, Initial residual = 4.41024e-05, Final residual = 2.87174e-20, No Iterations 1
time step continuity errors : sum local = 8.11135e-18, global = -2.82977e-19, cumulative = -3.40622e-18
ExecutionTime = 0.15 s  ClockTime = 0 s

Coats Number mean: 0.017863 max: 0.751384
deltaT = 11656.8
Time = 3.04472e+06

diagonal:  Solving for water.alpha, Initial residual = 0, Final residual = 0, No Iterations 0
Saturation w  Min = 0.1601 Max = 0.590016
DICPCG:  Solving for p, Initial residual = 4.6755e-05, Final residual = 4.22837e-20, No Iterations 1
time step continuity errors : sum local = 7.86146e-18, global = 4.52217e-19, cumulative = -2.954e-18
ExecutionTime = 0.15 s  ClockTime = 0 s

Coats Number mean: 0.0179092 max: 0.751392
deltaT = 11632.6
Time = 3.05635e+06

diagonal:  Solving for water.alpha, Initial residual = 0, Final residual = 0, No Iterations 0
Saturation w  Min = 0.1601 Max = 0.590539
DICPCG:  Solving for p, Initial residual = 4.9222e-05, Final residual = 2.43119e-20, No Iterations 1
time step continuity errors : sum local = 1.12248e-17, global = -1.22968e-18, cumulative = -4.18368e-18
ExecutionTime = 0.15 s  ClockTime = 0 s

Coats Number mean: 0.0179549 max: 0.751385
deltaT = 11608.4
Time = 3.06796e+06

diagonal:  Solving for water.alpha, Initial residual = 0, Final residual = 0, No Iterations 0
Saturation w  Min = 0.1601 Max = 0.59106
DICPCG:  Solving for p, Initial residual = 5.15065e-05, Final residual = 1.12737e-20, No Iterations 1
time step continuity errors : sum local = 8.72752e-18, global = 4.12974e-19, cumulative = -3.7707e-18
ExecutionTime = 0.15 s  ClockTime = 0 s

Coats Number mean: 0.0180001 max: 0.751363
deltaT = 11584.3
Time = 3.07954e+06

diagonal:  Solving for water.alpha, Initial residual = 0, Final residual = 0, No Iterations 0
Saturation w  Min = 0.1601 Max = 0.591578
DICPCG:  Solving for p, Initial residual = 5.36131e-05, Final residual = 1.55007e-20, No Iterations 1
time step continuity errors : sum local = 7.22968e-18, global = -3.80716e-19, cumulative = -4.15142e-18
ExecutionTime = 0.15 s  ClockTime = 0 s

Coats Number mean: 0.0180448 max: 0.751326
deltaT = 11560.2
Time = 3.0911e+06

diagonal:  Solving for water.alpha, Initial residual = 0, Final residual = 0, No Iterations 0
Saturation w  Min = 0.1601 Max = 0.592093
DICPCG:  Solving for p, Initial residual = 5.55474e-05, Final residual = 9.8637e-21, No Iterations 1
time step continuity errors : sum local = 9.2024e-18, global = 3.03548e-19, cumulative = -3.84787e-18
ExecutionTime = 0.15 s  ClockTime = 0 s

Coats Number mean: 0.0180889 max: 0.751274
deltaT = 11536.2
Time = 3.10264e+06

diagonal:  Solving for water.alpha, Initial residual = 0, Final residual = 0, No Iterations 0
Saturation w  Min = 0.1601 Max = 0.592605
DICPCG:  Solving for p, Initial residual = 5.73159e-05, Final residual = 6.23668e-20, No Iterations 1
time step continuity errors : sum local = 6.71694e-18, global = -2.32562e-19, cumulative = -4.08043e-18
ExecutionTime = 0.15 s  ClockTime = 0 s

Coats Number mean: 0.0181326 max: 0.751207
deltaT = 11512.2
Time = 3.11415e+06

diagonal:  Solving for water.alpha, Initial residual = 0, Final residual = 0, No Iterations 0
Saturation w  Min = 0.1601 Max = 0.593115
DICPCG:  Solving for p, Initial residual = 5.89259e-05, Final residual = 3.45285e-20, No Iterations 1
time step continuity errors : sum local = 8.00574e-18, global = 5.26565e-20, cumulative = -4.02778e-18
ExecutionTime = 0.16 s  ClockTime = 0 s

Coats Number mean: 0.0181757 max: 0.751125
deltaT = 11488.3
Time = 3.12564e+06

diagonal:  Solving for water.alpha, Initial residual = 0, Final residual = 0, No Iterations 0
Saturation w  Min = 0.1601 Max = 0.593623
DICPCG:  Solving for p, Initial residual = 6.03849e-05, Final residual = 2.1844e-20, No Iterations 1
time step continuity errors : sum local = 8.74421e-18, global = -2.66627e-19, cumulative = -4.29441e-18
ExecutionTime = 0.16 s  ClockTime = 0 s

Coats Number mean: 0.0182183 max: 0.751029
deltaT = 11464.4
Time = 3.1371e+06

diagonal:  Solving for water.alpha, Initial residual = 0, Final residual = 0, No Iterations 0
Saturation w  Min = 0.1601 Max = 0.594128
DICPCG:  Solving for p, Initial residual = 6.17005e-05, Final residual = 4.51007e-20, No Iterations 1
time step continuity errors : sum local = 9.61748e-18, global = 5.01072e-19, cumulative = -3.79333e-18
ExecutionTime = 0.16 s  ClockTime = 0 s

Coats Number mean: 0.0182604 max: 0.750919
deltaT = 11440.5
Time = 3.14854e+06

diagonal:  Solving for water.alpha, Initial residual = 0, Final residual = 0, No Iterations 0
Saturation w  Min = 0.1601 Max = 0.59463
DICPCG:  Solving for p, Initial residual = 6.28803e-05, Final residual = 1.55026e-20, No Iterations 1
time step continuity errors : sum local = 9.98704e-18, global = -5.52359e-19, cumulative = -4.34569e-18
ExecutionTime = 0.16 s  ClockTime = 0 s

Coats Number mean: 0.018302 max: 0.750794
deltaT = 11416.7
Time = 3.15996e+06

diagonal:  Solving for water.alpha, Initial residual = 0, Final residual = 0, No Iterations 0
Saturation w  Min = 0.1601 Max = 0.59513
DICPCG:  Solving for p, Initial residual = 6.39318e-05, Final residual = 2.1847e-20, No Iterations 1
time step continuity errors : sum local = 1.08366e-17, global = -2.84309e-19, cumulative = -4.63e-18
ExecutionTime = 0.16 s  ClockTime = 0 s

Coats Number mean: 0.0183431 max: 0.750656
deltaT = 11393
Time = 3.17135e+06

diagonal:  Solving for water.alpha, Initial residual = 0, Final residual = 0, No Iterations 0
Saturation w  Min = 0.1601 Max = 0.595628
DICPCG:  Solving for p, Initial residual = 6.48618e-05, Final residual = 3.04965e-20, No Iterations 1
time step continuity errors : sum local = 1.0706e-17, global = -2.64417e-19, cumulative = -4.89442e-18
ExecutionTime = 0.16 s  ClockTime = 0 s

Coats Number mean: 0.0183837 max: 0.750503
deltaT = 11369.3
Time = 3.18272e+06

diagonal:  Solving for water.alpha, Initial residual = 0, Final residual = 0, No Iterations 0
Saturation w  Min = 0.1601 Max = 0.596123
DICPCG:  Solving for p, Initial residual = 6.56769e-05, Final residual = 3.74506e-20, No Iterations 1
time step continuity errors : sum local = 1.026e-17, global = -5.06548e-19, cumulative = -5.40097e-18
ExecutionTime = 0.16 s  ClockTime = 0 s

Coats Number mean: 0.0184238 max: 0.750337
deltaT = 11345.7
Time = 3.19407e+06

diagonal:  Solving for water.alpha, Initial residual = 0, Final residual = 0, No Iterations 0
Saturation w  Min = 0.1601 Max = 0.596616
DICPCG:  Solving for p, Initial residual = 6.6383e-05, Final residual = 3.55453e-20, No Iterations 1
time step continuity errors : sum local = 8.99705e-18, global = 4.93963e-19, cumulative = -4.907e-18
ExecutionTime = 0.16 s  ClockTime = 0 s

Coats Number mean: 0.0184634 max: 0.750157
deltaT = 11322.1
Time = 3.20539e+06

diagonal:  Solving for water.alpha, Initial residual = 0, Final residual = 0, No Iterations 0
Saturation w  Min = 0.1601 Max = 0.597107
DICPCG:  Solving for p, Initial residual = 6.71976e-05, Final residual = 1.74968e-20, No Iterations 1
time step continuity errors : sum local = 5.66397e-18, global = -1.13164e-19, cumulative = -5.02017e-18
ExecutionTime = 0.17 s  ClockTime = 0 s

Coats Number mean: 0.0185025 max: 0.749963
deltaT = 11322.1
Time = 3.21671e+06

diagonal:  Solving for water.alpha, Initial residual = 0, Final residual = 0, No Iterations 0
Saturation w  Min = 0.1601 Max = 0.597596
DICPCG:  Solving for p, Initial residual = 6.85655e-05, Final residual = 2.33062e-20, No Iterations 1
time step continuity errors : sum local = 1.0273e-17, global = -7.02002e-19, cumulative = -5.72217e-18
ExecutionTime = 0.17 s  ClockTime = 0 s

Coats Number mean: 0.01858 max: 0.751321
deltaT = 11298.5
Time = 3.22801e+06

diagonal:  Solving for water.alpha, Initial residual = 0, Final residual = 0, No Iterations 0
Saturation w  Min = 0.1601 Max = 0.598083
DICPCG:  Solving for p, Initial residual = 6.97138e-05, Final residual = 1.51847e-20, No Iterations 1
time step continuity errors : sum local = 7.83609e-18, global = -5.78041e-19, cumulative = -6.30021e-18
ExecutionTime = 0.17 s  ClockTime = 0 s

Coats Number mean: 0.0186183 max: 0.751099
deltaT = 11275
Time = 3.23929e+06

[...]
time step continuity errors : sum local = 7.21593e-18, global = 2.8844e-19, cumulative = -3.42751e-17
ExecutionTime = 3.56 s  ClockTime = 3 s

Coats Number mean: 0.0832572 max: 0.745823
deltaT = 14552.6
Time = 6.85088e+07

diagonal:  Solving for water.alpha, Initial residual = 0, Final residual = 0, No Iterations 0
Saturation w  Min = 0.1601 Max = 0.794165
DICPCG:  Solving for p, Initial residual = 1.50658e-06, Final residual = 3.05771e-20, No Iterations 1
time step continuity errors : sum local = 5.77373e-18, global = -5.32505e-19, cumulative = -3.48076e-17
ExecutionTime = 3.56 s  ClockTime = 3 s

Coats Number mean: 0.0832603 max: 0.745551
deltaT = 14552.6
Time = 6.85233e+07

diagonal:  Solving for water.alpha, Initial residual = 0, Final residual = 0, No Iterations 0
Saturation w  Min = 0.1601 Max = 0.794166
DICPCG:  Solving for p, Initial residual = 1.49879e-06, Final residual = 1.58593e-20, No Iterations 1
time step continuity errors : sum local = 6.97433e-18, global = -4.95525e-19, cumulative = -3.53031e-17
ExecutionTime = 3.56 s  ClockTime = 3 s

Coats Number mean: 0.0832635 max: 0.745267
deltaT = 14552.6
Time = 6.85379e+07

diagonal:  Solving for water.alpha, Initial residual = 0, Final residual = 0, No Iterations 0
Saturation w  Min = 0.1601 Max = 0.794167
DICPCG:  Solving for p, Initial residual = 1.48945e-06, Final residual = 1.46252e-20, No Iterations 1
time step continuity errors : sum local = 6.96694e-18, global = 8.48063e-19, cumulative = -3.4455e-17
ExecutionTime = 3.57 s  ClockTime = 3 s

Coats Number mean: 0.0832668 max: 0.744971
deltaT = 14552.6
Time = 6.85525e+07

diagonal:  Solving for water.alpha, Initial residual = 0, Final residual = 0, No Iterations 0
Saturation w  Min = 0.1601 Max = 0.794167
DICPCG:  Solving for p, Initial residual = 1.47855e-06, Final residual = 2.01265e-20, No Iterations 1
time step continuity errors : sum local = 5.98575e-18, global = 9.12161e-19, cumulative = -3.35429e-17
ExecutionTime = 3.57 s  ClockTime = 3 s

Coats Number mean: 0.0832701 max: 0.744661
deltaT = 14552.6
Time = 6.8567e+07

diagonal:  Solving for water.alpha, Initial residual = 0, Final residual = 0, No Iterations 0
Saturation w  Min = 0.1601 Max = 0.794168
DICPCG:  Solving for p, Initial residual = 1.46612e-06, Final residual = 1.88786e-20, No Iterations 1
time step continuity errors : sum local = 6.607e-18, global = 1.51862e-18, cumulative = -3.20243e-17
ExecutionTime = 3.57 s  ClockTime = 3 s

Coats Number mean: 0.0832734 max: 0.744339
deltaT = 14552.6
Time = 6.85816e+07

diagonal:  Solving for water.alpha, Initial residual = 0, Final residual = 0, No Iterations 0
Saturation w  Min = 0.1601 Max = 0.794169
DICPCG:  Solving for p, Initial residual = 1.45221e-06, Final residual = 1.61675e-20, No Iterations 1
time step continuity errors : sum local = 6.33089e-18, global = -8.33271e-19, cumulative = -3.28575e-17
ExecutionTime = 3.57 s  ClockTime = 3 s

Coats Number mean: 0.0832769 max: 0.744004
deltaT = 14552.6
Time = 6.85961e+07

diagonal:  Solving for water.alpha, Initial residual = 0, Final residual = 0, No Iterations 0
Saturation w  Min = 0.1601 Max = 0.79417
DICPCG:  Solving for p, Initial residual = 1.43689e-06, Final residual = 1.32024e-20, No Iterations 1
time step continuity errors : sum local = 7.24798e-18, global = -3.84587e-19, cumulative = -3.32421e-17
ExecutionTime = 3.57 s  ClockTime = 3 s

Coats Number mean: 0.0832804 max: 0.743656
deltaT = 14552.6
Time = 6.86107e+07

diagonal:  Solving for water.alpha, Initial residual = 0, Final residual = 0, No Iterations 0
Saturation w  Min = 0.1601 Max = 0.79417
DICPCG:  Solving for p, Initial residual = 1.42092e-06, Final residual = 2.25572e-20, No Iterations 1
time step continuity errors : sum local = 6.34075e-18, global = 1.6271e-19, cumulative = -3.30794e-17
ExecutionTime = 3.57 s  ClockTime = 3 s

Coats Number mean: 0.0832839 max: 0.743295
deltaT = 14552.6
Time = 6.86252e+07

diagonal:  Solving for water.alpha, Initial residual = 0, Final residual = 0, No Iterations 0
Saturation w  Min = 0.1601 Max = 0.794171
DICPCG:  Solving for p, Initial residual = 1.40361e-06, Final residual = 2.95752e-20, No Iterations 1
time step continuity errors : sum local = 7.16663e-18, global = -3.77191e-19, cumulative = -3.34566e-17
ExecutionTime = 3.57 s  ClockTime = 3 s

Coats Number mean: 0.0832875 max: 0.74292
deltaT = 14552.6
Time = 6.86398e+07

diagonal:  Solving for water.alpha, Initial residual = 0, Final residual = 0, No Iterations 0
Saturation w  Min = 0.1601 Max = 0.794172
DICPCG:  Solving for p, Initial residual = 1.38504e-06, Final residual = 3.09873e-20, No Iterations 1
time step continuity errors : sum local = 6.68589e-18, global = -8.92438e-19, cumulative = -3.4349e-17
ExecutionTime = 3.57 s  ClockTime = 3 s

Coats Number mean: 0.0832912 max: 0.742533
deltaT = 14552.6
Time = 6.86543e+07

diagonal:  Solving for water.alpha, Initial residual = 0, Final residual = 0, No Iterations 0
Saturation w  Min = 0.1601 Max = 0.794173
DICPCG:  Solving for p, Initial residual = 1.36527e-06, Final residual = 1.61328e-20, No Iterations 1
time step continuity errors : sum local = 6.16818e-18, global = -3.15558e-19, cumulative = -3.46646e-17
ExecutionTime = 3.57 s  ClockTime = 3 s

Coats Number mean: 0.083295 max: 0.742133
deltaT = 14552.6
Time = 6.86689e+07

diagonal:  Solving for water.alpha, Initial residual = 0, Final residual = 0, No Iterations 0
Saturation w  Min = 0.1601 Max = 0.794173
DICPCG:  Solving for p, Initial residual = 1.34439e-06, Final residual = 1.6211e-20, No Iterations 1
time step continuity errors : sum local = 6.27172e-18, global = 1.18827e-18, cumulative = -3.34763e-17
ExecutionTime = 3.57 s  ClockTime = 3 s

Coats Number mean: 0.0832988 max: 0.741719
deltaT = 14552.6
Time = 6.86834e+07

diagonal:  Solving for water.alpha, Initial residual = 0, Final residual = 0, No Iterations 0
Saturation w  Min = 0.1601 Max = 0.794174
DICPCG:  Solving for p, Initial residual = 1.3225e-06, Final residual = 1.20949e-20, No Iterations 1
time step continuity errors : sum local = 7.52409e-18, global = -1.87363e-19, cumulative = -3.36637e-17
ExecutionTime = 3.58 s  ClockTime = 3 s

Coats Number mean: 0.0833027 max: 0.741292
deltaT = 14552.6
Time = 6.8698e+07

diagonal:  Solving for water.alpha, Initial residual = 0, Final residual = 0, No Iterations 0
Saturation w  Min = 0.1601 Max = 0.794175
DICPCG:  Solving for p, Initial residual = 1.29969e-06, Final residual = 2.027e-20, No Iterations 1
time step continuity errors : sum local = 6.10408e-18, global = -1.57779e-19, cumulative = -3.38215e-17
ExecutionTime = 3.58 s  ClockTime = 3 s

Coats Number mean: 0.0833066 max: 0.74133
deltaT = 14552.6
Time = 6.87125e+07

diagonal:  Solving for water.alpha, Initial residual = 0, Final residual = 0, No Iterations 0
Saturation w  Min = 0.1601 Max = 0.794176
DICPCG:  Solving for p, Initial residual = 1.27608e-06, Final residual = 2.1745e-20, No Iterations 1
time step continuity errors : sum local = 7.15676e-18, global = -3.69795e-20, cumulative = -3.38584e-17
ExecutionTime = 3.58 s  ClockTime = 3 s

Coats Number mean: 0.0833106 max: 0.741705
deltaT = 14552.6
Time = 6.87271e+07

diagonal:  Solving for water.alpha, Initial residual = 0, Final residual = 0, No Iterations 0
Saturation w  Min = 0.1601 Max = 0.794176
DICPCG:  Solving for p, Initial residual = 1.25178e-06, Final residual = 2.40967e-20, No Iterations 1
time step continuity errors : sum local = 5.62088e-18, global = -2.81044e-19, cumulative = -3.41395e-17
ExecutionTime = 3.58 s  ClockTime = 3 s

Coats Number mean: 0.0833146 max: 0.742071
deltaT = 14552.6
Time = 6.87416e+07

diagonal:  Solving for water.alpha, Initial residual = 0, Final residual = 0, No Iterations 0
Saturation w  Min = 0.1601 Max = 0.794177
DICPCG:  Solving for p, Initial residual = 1.2269e-06, Final residual = 2.30918e-20, No Iterations 1
time step continuity errors : sum local = 5.3571e-18, global = -7.66708e-19, cumulative = -3.49062e-17
ExecutionTime = 3.58 s  ClockTime = 3 s

Coats Number mean: 0.0833187 max: 0.742428
deltaT = 14552.6
Time = 6.87562e+07

diagonal:  Solving for water.alpha, Initial residual = 0, Final residual = 0, No Iterations 0
Saturation w  Min = 0.1601 Max = 0.794178
DICPCG:  Solving for p, Initial residual = 1.20158e-06, Final residual = 1.44527e-20, No Iterations 1
time step continuity errors : sum local = 8.3623e-18, global = -7.3959e-19, cumulative = -3.56458e-17
ExecutionTime = 3.58 s  ClockTime = 3 s

Coats Number mean: 0.0833228 max: 0.742775
deltaT = 14552.6
Time = 6.87707e+07

diagonal:  Solving for water.alpha, Initial residual = 0, Final residual = 0, No Iterations 0
Saturation w  Min = 0.1601 Max = 0.794179
DICPCG:  Solving for p, Initial residual = 1.17593e-06, Final residual = 2.65759e-20, No Iterations 1
time step continuity errors : sum local = 5.59623e-18, global = 9.36814e-20, cumulative = -3.55521e-17
ExecutionTime = 3.58 s  ClockTime = 3 s

Coats Number mean: 0.083327 max: 0.743114
deltaT = 14552.6
Time = 6.87853e+07

diagonal:  Solving for water.alpha, Initial residual = 0, Final residual = 0, No Iterations 0
Saturation w  Min = 0.1601 Max = 0.794179
DICPCG:  Solving for p, Initial residual = 1.15009e-06, Final residual = 1.53775e-20, No Iterations 1
time step continuity errors : sum local = 6.16571e-18, global = -1.75036e-19, cumulative = -3.57271e-17
ExecutionTime = 3.58 s  ClockTime = 3 s

Coats Number mean: 0.0833312 max: 0.743443
deltaT = 14552.6
Time = 6.87998e+07

diagonal:  Solving for water.alpha, Initial residual = 0, Final residual = 0, No Iterations 0
Saturation w  Min = 0.1601 Max = 0.79418
DICPCG:  Solving for p, Initial residual = 1.12417e-06, Final residual = 1.39613e-20, No Iterations 1
time step continuity errors : sum local = 6.27665e-18, global = -1.28196e-18, cumulative = -3.70091e-17
ExecutionTime = 3.58 s  ClockTime = 3 s

Coats Number mean: 0.0833354 max: 0.743763
deltaT = 14552.6
Time = 6.88144e+07

diagonal:  Solving for water.alpha, Initial residual = 0, Final residual = 0, No Iterations 0
Saturation w  Min = 0.1601 Max = 0.794181
DICPCG:  Solving for p, Initial residual = 1.09832e-06, Final residual = 1.16376e-20, No Iterations 1
time step continuity errors : sum local = 5.78606e-18, global = 1.23265e-20, cumulative = -3.69968e-17
ExecutionTime = 3.58 s  ClockTime = 3 s

Coats Number mean: 0.0833396 max: 0.744073
deltaT = 14552.6
Time = 6.88289e+07

diagonal:  Solving for water.alpha, Initial residual = 0, Final residual = 0, No Iterations 0
Saturation w  Min = 0.1601 Max = 0.794182
DICPCG:  Solving for p, Initial residual = 1.07264e-06, Final residual = 1.34688e-20, No Iterations 1
time step continuity errors : sum local = 5.61349e-18, global = -1.99689e-19, cumulative = -3.71965e-17
ExecutionTime = 3.58 s  ClockTime = 3 s

Coats Number mean: 0.0833439 max: 0.744374
deltaT = 14552.6
Time = 6.88435e+07

diagonal:  Solving for water.alpha, Initial residual = 0, Final residual = 0, No Iterations 0
Saturation w  Min = 0.1601 Max = 0.794182
DICPCG:  Solving for p, Initial residual = 1.04727e-06, Final residual = 1.48979e-20, No Iterations 1
time step continuity errors : sum local = 6.04491e-18, global = -4.24032e-19, cumulative = -3.76205e-17
ExecutionTime = 3.58 s  ClockTime = 3 s

Coats Number mean: 0.0833482 max: 0.744665
deltaT = 14552.6
Time = 6.88581e+07

diagonal:  Solving for water.alpha, Initial residual = 0, Final residual = 0, No Iterations 0
Saturation w  Min = 0.1601 Max = 0.794183
DICPCG:  Solving for p, Initial residual = 1.02232e-06, Final residual = 1.80262e-20, No Iterations 1
time step continuity errors : sum local = 5.07359e-18, global = 1.82432e-19, cumulative = -3.74381e-17
ExecutionTime = 3.58 s  ClockTime = 3 s

Coats Number mean: 0.0833525 max: 0.744947
deltaT = 14552.6
Time = 6.88726e+07

diagonal:  Solving for water.alpha, Initial residual = 0, Final residual = 0, No Iterations 0
Saturation w  Min = 0.1601 Max = 0.794184
DICPCG:  Solving for p, Initial residual = 9.97893e-07, Final residual = 2.21642e-20, No Iterations 1
time step continuity errors : sum local = 5.59376e-18, global = 1.07241e-18, cumulative = -3.63656e-17
ExecutionTime = 3.58 s  ClockTime = 3 s

Coats Number mean: 0.0833568 max: 0.745219
deltaT = 14552.6
Time = 6.88872e+07

diagonal:  Solving for water.alpha, Initial residual = 0, Final residual = 0, No Iterations 0
Saturation w  Min = 0.1601 Max = 0.794185
DICPCG:  Solving for p, Initial residual = 9.74102e-07, Final residual = 1.36312e-20, No Iterations 1
time step continuity errors : sum local = 5.38668e-18, global = 5.54692e-19, cumulative = -3.5811e-17
ExecutionTime = 3.58 s  ClockTime = 3 s

Coats Number mean: 0.083361 max: 0.745481
deltaT = 14552.6
Time = 6.89017e+07

diagonal:  Solving for water.alpha, Initial residual = 0, Final residual = 0, No Iterations 0
Saturation w  Min = 0.1601 Max = 0.794185
DICPCG:  Solving for p, Initial residual = 9.5104e-07, Final residual = 1.71877e-20, No Iterations 1
time step continuity errors : sum local = 5.84029e-18, global = 6.63166e-19, cumulative = -3.51478e-17
ExecutionTime = 3.58 s  ClockTime = 3 s

Coats Number mean: 0.0833653 max: 0.745734
deltaT = 14552.6
Time = 6.89163e+07

diagonal:  Solving for water.alpha, Initial residual = 0, Final residual = 0, No Iterations 0
Saturation w  Min = 0.1601 Max = 0.794186
DICPCG:  Solving for p, Initial residual = 9.28795e-07, Final residual = 2.85048e-20, No Iterations 1
time step continuity errors : sum local = 6.3654e-18, global = 9.9105e-19, cumulative = -3.41567e-17
ExecutionTime = 3.59 s  ClockTime = 3 s

Coats Number mean: 0.0833696 max: 0.745976
deltaT = 14552.6
Time = 6.89308e+07

diagonal:  Solving for water.alpha, Initial residual = 0, Final residual = 0, No Iterations 0
Saturation w  Min = 0.1601 Max = 0.794187
DICPCG:  Solving for p, Initial residual = 9.07445e-07, Final residual = 1.77407e-20, No Iterations 1
time step continuity errors : sum local = 7.68927e-18, global = 2.34203e-19, cumulative = -3.39225e-17
ExecutionTime = 3.59 s  ClockTime = 3 s

Coats Number mean: 0.0833738 max: 0.746209
deltaT = 14552.6
Time = 6.89454e+07

diagonal:  Solving for water.alpha, Initial residual = 0, Final residual = 0, No Iterations 0
Saturation w  Min = 0.1601 Max = 0.794188
DICPCG:  Solving for p, Initial residual = 8.87059e-07, Final residual = 1.9324e-20, No Iterations 1
time step continuity errors : sum local = 5.40147e-18, global = -1.89828e-19, cumulative = -3.41124e-17
ExecutionTime = 3.59 s  ClockTime = 3 s

Coats Number mean: 0.083378 max: 0.746432
deltaT = 14552.6
Time = 6.89599e+07

diagonal:  Solving for water.alpha, Initial residual = 0, Final residual = 0, No Iterations 0
Saturation w  Min = 0.1601 Max = 0.794188
DICPCG:  Solving for p, Initial residual = 8.67697e-07, Final residual = 1.94373e-20, No Iterations 1
time step continuity errors : sum local = 6.07203e-18, global = -1.65175e-19, cumulative = -3.42775e-17
ExecutionTime = 3.59 s  ClockTime = 3 s

Coats Number mean: 0.0833822 max: 0.746644
deltaT = 14552.6
Time = 6.89745e+07

diagonal:  Solving for water.alpha, Initial residual = 0, Final residual = 0, No Iterations 0
Saturation w  Min = 0.1601 Max = 0.794189
DICPCG:  Solving for p, Initial residual = 8.49407e-07, Final residual = 1.99471e-20, No Iterations 1
time step continuity errors : sum local = 7.88896e-18, global = 1.72571e-19, cumulative = -3.4105e-17
ExecutionTime = 3.59 s  ClockTime = 3 s

Coats Number mean: 0.0833863 max: 0.746847
deltaT = 14552.6
Time = 6.8989e+07

diagonal:  Solving for water.alpha, Initial residual = 0, Final residual = 0, No Iterations 0
Saturation w  Min = 0.1601 Max = 0.79419
DICPCG:  Solving for p, Initial residual = 8.32229e-07, Final residual = 1.35179e-20, No Iterations 1
time step continuity errors : sum local = 6.83381e-18, global = -1.47918e-19, cumulative = -3.42529e-17
ExecutionTime = 3.59 s  ClockTime = 3 s

Coats Number mean: 0.0833904 max: 0.747039
deltaT = 14552.6
Time = 6.90036e+07

diagonal:  Solving for water.alpha, Initial residual = 0, Final residual = 0, No Iterations 0
Saturation w  Min = 0.1601 Max = 0.794191
DICPCG:  Solving for p, Initial residual = 8.46327e-07, Final residual = 1.58499e-20, No Iterations 1
time step continuity errors : sum local = 8.23164e-18, global = -1.40522e-19, cumulative = -3.43934e-17
ExecutionTime = 3.59 s  ClockTime = 3 s

Coats Number mean: 0.0833945 max: 0.747222
deltaT = 14552.6
Time = 6.90181e+07

diagonal:  Solving for water.alpha, Initial residual = 0, Final residual = 0, No Iterations 0
Saturation w  Min = 0.1601 Max = 0.794191
DICPCG:  Solving for p, Initial residual = 8.73061e-07, Final residual = 1.67166e-20, No Iterations 1
time step continuity errors : sum local = 6.92256e-18, global = 4.63476e-19, cumulative = -3.39299e-17
ExecutionTime = 3.59 s  ClockTime = 3 s

Coats Number mean: 0.0833985 max: 0.747393
deltaT = 14552.6
Time = 6.90327e+07

diagonal:  Solving for water.alpha, Initial residual = 0, Final residual = 0, No Iterations 0
Saturation w  Min = 0.1601 Max = 0.794192
DICPCG:  Solving for p, Initial residual = 8.9977e-07, Final residual = 1.91199e-20, No Iterations 1
time step continuity errors : sum local = 6.83381e-18, global = -9.31883e-19, cumulative = -3.48618e-17
ExecutionTime = 3.59 s  ClockTime = 3 s

Coats Number mean: 0.0834024 max: 0.747555
deltaT = 14552.6
Time = 6.90472e+07

diagonal:  Solving for water.alpha, Initial residual = 0, Final residual = 0, No Iterations 0
Saturation w  Min = 0.1601 Max = 0.794193
DICPCG:  Solving for p, Initial residual = 9.26405e-07, Final residual = 1.75274e-20, No Iterations 1
time step continuity errors : sum local = 5.02182e-18, global = 3.69795e-20, cumulative = -3.48248e-17
ExecutionTime = 3.59 s  ClockTime = 3 s

Coats Number mean: 0.0834063 max: 0.747706
deltaT = 14552.6
Time = 6.90618e+07

diagonal:  Solving for water.alpha, Initial residual = 0, Final residual = 0, No Iterations 0
Saturation w  Min = 0.1601 Max = 0.794194
DICPCG:  Solving for p, Initial residual = 9.52918e-07, Final residual = 2.28525e-20, No Iterations 1
time step continuity errors : sum local = 5.75401e-18, global = 2.41599e-19, cumulative = -3.45832e-17
ExecutionTime = 3.6 s  ClockTime = 3 s

Coats Number mean: 0.0834102 max: 0.747847
deltaT = 14552.6
Time = 6.90763e+07

diagonal:  Solving for water.alpha, Initial residual = 0, Final residual = 0, No Iterations 0
Saturation w  Min = 0.1601 Max = 0.794194
DICPCG:  Solving for p, Initial residual = 9.79262e-07, Final residual = 1.21463e-20, No Iterations 1
time step continuity errors : sum local = 6.39499e-18, global = 1.6912e-18, cumulative = -3.2892e-17
ExecutionTime = 3.6 s  ClockTime = 3 s

Coats Number mean: 0.0834139 max: 0.747977
deltaT = 14552.6
Time = 6.90909e+07

diagonal:  Solving for water.alpha, Initial residual = 0, Final residual = 0, No Iterations 0
Saturation w  Min = 0.1601 Max = 0.794195
DICPCG:  Solving for p, Initial residual = 1.00539e-06, Final residual = 1.7123e-20, No Iterations 1
time step continuity errors : sum local = 6.59468e-18, global = -8.89973e-19, cumulative = -3.3782e-17
ExecutionTime = 3.6 s  ClockTime = 3 s

Coats Number mean: 0.0834176 max: 0.748096
deltaT = 14552.6
Time = 6.91054e+07

diagonal:  Solving for water.alpha, Initial residual = 0, Final residual = 0, No Iterations 0
Saturation w  Min = 0.1601 Max = 0.794196
DICPCG:  Solving for p, Initial residual = 1.03125e-06, Final residual = 1.82205e-20, No Iterations 1
time step continuity errors : sum local = 6.3654e-18, global = -5.37435e-19, cumulative = -3.43194e-17
ExecutionTime = 3.6 s  ClockTime = 3 s

Coats Number mean: 0.0834213 max: 0.748205
deltaT = 14552.6
Time = 6.912e+07

diagonal:  Solving for water.alpha, Initial residual = 0, Final residual = 0, No Iterations 0
Saturation w  Min = 0.1601 Max = 0.794197
DICPCG:  Solving for p, Initial residual = 1.05683e-06, Final residual = 1.38859e-20, No Iterations 1
time step continuity errors : sum local = 6.43936e-18, global = 2.71183e-19, cumulative = -3.40483e-17
ExecutionTime = 3.6 s  ClockTime = 3 s

End

