/*---------------------------------------------------------------------------*\
| =========                 |                                                 |
| \\      /  F ield         | OpenFOAM: The Open Source CFD Toolbox           |
|  \\    /   O peration     | Version:  4.1                                   |
|   \\  /    A nd           | Web:      www.OpenFOAM.org                      |
|    \\/     M anipulation  |                                                 |
\*---------------------------------------------------------------------------*/
Build  : 4.1
Exec   : impesFoam
Date   : Feb 23 2019
Time   : 12:21:24
Host   : "elwardi"
PID    : 17398
Case   : /home/elwardi/MasterThesis/reservoir-simulator/tutorials/impesFoam/krBrooksCorey
nProcs : 1
sigFpe : Enabling floating point exception trapping (FOAM_SIGFPE).
fileModificationChecking : Monitoring run-time modified files using timeStampMaster
allowSystemOperations : Allowing user-supplied system call operations

// * * * * * * * * * * * * * * * * * * * * * * * * * * * * * * * * * * * * * //
Create time

Create mesh for time = 0


Reading g
Reading field p

Reading field Sw 

Reading transportProperties

Selecting relativePermeability model => BrooksCorey

Reading field K

Reading field U

Reading/calculating face flux field phi

Selecting Capillary Pressure model => none

Selecting well model : PeacemanWellModel

Reading Wells
Updating Started
Wells Data: 16

Starting time loop

Coats Number mean: 0 max: 0
deltaT = 0.00012
Time = 0.00012

diagonal:  Solving for Sw, Initial residual = 0, Final residual = 0, No Iterations 0
Saturation w  Min = 0.1601 Max = 0.7999
DICPCG:  Solving for p, Initial residual = 0, Final residual = 0, No Iterations 0
time step continuity errors : sum local = 0, global = 0, cumulative = 0
ExecutionTime = 0.02 s  ClockTime = 1 s

End

