/*---------------------------------------------------------------------------*\
| =========                 |                                                 |
| \\      /  F ield         | OpenFOAM: The Open Source CFD Toolbox           |
|  \\    /   O peration     | Version:  4.1                                   |
|   \\  /    A nd           | Web:      www.OpenFOAM.org                      |
|    \\/     M anipulation  |                                                 |
\*---------------------------------------------------------------------------*/
Build  : 4.1
Exec   : setFields
Date   : Feb 27 2019
Time   : 18:03:57
Host   : "elwardi"
PID    : 18768
Case   : /home/elwardi/MasterThesis/reservoir-simulator/tutorials/impesFoam/TanejaDr/fiveSpot02
nProcs : 1
sigFpe : Enabling floating point exception trapping (FOAM_SIGFPE).
fileModificationChecking : Monitoring run-time modified files using timeStampMaster
allowSystemOperations : Allowing user-supplied system call operations

// * * * * * * * * * * * * * * * * * * * * * * * * * * * * * * * * * * * * * //
Create time

Using #calcEntry at line 27 in file "/home/elwardi/MasterThesis/reservoir-simulator/tutorials/impesFoam/TanejaDr/fiveSpot02/system/controlDict"
Using #codeStream with "/home/elwardi/MasterThesis/reservoir-simulator/tutorials/impesFoam/TanejaDr/fiveSpot02/dynamicCode/platforms/linux64GccDPInt32Opt/lib/libcodeStream_033dbd752947219024abb850bca21c37bded607c.so"
Create mesh for time = 0

Reading setFieldsDict

Setting field default values
    Setting internal values of volScalarField K

Setting field region values
    Adding cells with center within boxes 1((-12 -6 0) (0 6 1))
    Setting internal values of volScalarField K

End

