/*---------------------------------------------------------------------------*\
| =========                 |                                                 |
| \\      /  F ield         | foam-extend: Open Source CFD                    |
|  \\    /   O peration     | Version:     4.0                                |
|   \\  /    A nd           | Web:         http://www.foam-extend.org         |
|    \\/     M anipulation  | For copyright notice see file Copyright         |
\*---------------------------------------------------------------------------*/
Build    : 4.0-268bb07d15d8
Exec     : twoPhaseImpesFoam
Date     : Mar 10 2020
Time     : 13:33:54
Host     : Elwardi-PC
PID      : 20062
CtrlDict : "/home/elwardi/GitRepos/OpenRSR.tutorials/isotropic/twoPhase/twoPhaseImpesFoam/BL-Case1A/system/controlDict"
Case     : /home/elwardi/GitRepos/OpenRSR.tutorials/isotropic/twoPhase/twoPhaseImpesFoam/BL-Case1A
nProcs   : 1
SigFpe   : Enabling floating point exception trapping (FOAM_SIGFPE).

// * * * * * * * * * * * * * * * * * * * * * * * * * * * * * * * * * * * * * //
Create time

Create mesh for time = 0


Reading g

Reading field p

Reading transportProperties

Reading field porosity

Reading field K

Interpolating field K


    From function magLongDelta::makeMagLongDistance()
    in file interpolation/surfaceInterpolation/schemes/harmonic/magLongDelta.C at line 75
    Constructing magnitude of long cell distance


Reading/calculating face flux field phi

Selecting wellModel : peaceman

Reading Wells


Starting time loop

Time = 100

water saturation: Min = 0.3 Max = 0.3
DICPCG:  Solving for p, Initial residual = 1, Final residual = 8.88548e-14, No Iterations 1
time step continuity errors : sum local = 1.45519e-13, global = -2.27374e-14, cumulative = -2.27374e-14
Coats Number mean: 4.20159e-13 max: 1.17363e-12
deltaT = 119.999
ExecutionTime = 0.02 s  ClockTime = 0 s

Time = 219.999

water saturation: Min = 0.3 Max = 0.3
DICPCG:  Solving for p, Initial residual = 0.0729455, Final residual = 4.18174e-15, No Iterations 1
time step continuity errors : sum local = 2.45561e-13, global = 5.45691e-15, cumulative = -1.72805e-14
Coats Number mean: 3.50676e-13 max: 7.74587e-13
deltaT = 143.996
ExecutionTime = 0.02 s  ClockTime = 0 s

Time = 363.995

water saturation: Min = 0.3 Max = 0.3
DICPCG:  Solving for p, Initial residual = 0.224839, Final residual = 1.43649e-14, No Iterations 1
time step continuity errors : sum local = 2.68476e-13, global = -2.61928e-14, cumulative = -4.34732e-14
Coats Number mean: 6.62474e-13 max: 1.60548e-12
deltaT = 172.793
ExecutionTime = 0.02 s  ClockTime = 0 s

Time = 536.788

water saturation: Min = 0.3 Max = 0.3
DICPCG:  Solving for p, Initial residual = 0.0933333, Final residual = 7.61252e-15, No Iterations 1
time step continuity errors : sum local = 3.7717e-13, global = 3.92885e-14, cumulative = -4.18473e-15
Coats Number mean: 1.27355e-12 max: 2.23074e-12
deltaT = 207.35
ExecutionTime = 0.03 s  ClockTime = 0 s

Time = 744.138

water saturation: Min = 0.3 Max = 0.3
DICPCG:  Solving for p, Initial residual = 0.066345, Final residual = 5.07582e-15, No Iterations 1
time step continuity errors : sum local = 5.18606e-13, global = 0, cumulative = -4.18473e-15
Coats Number mean: 6.32717e-13 max: 1.46012e-12
deltaT = 248.819
ExecutionTime = 0.03 s  ClockTime = 0 s

Time = 992.957

water saturation: Min = 0.3 Max = 0.3
DICPCG:  Solving for p, Initial residual = 0.163102, Final residual = 6.64783e-15, No Iterations 1
time step continuity errors : sum local = 5.99695e-13, global = 2.263e-14, cumulative = 1.84453e-14
Coats Number mean: 1.22065e-12 max: 2.6282e-12
deltaT = 298.576
ExecutionTime = 0.03 s  ClockTime = 0 s

Time = 1291.53

water saturation: Min = 0.3 Max = 0.3
DICPCG:  Solving for p, Initial residual = 0.118573, Final residual = 1.04359e-15, No Iterations 1
time step continuity errors : sum local = 5.70263e-13, global = -1.35777e-14, cumulative = 4.86758e-15
Coats Number mean: 1.05826e-12 max: 2.97855e-12
deltaT = 358.289
ExecutionTime = 0.04 s  ClockTime = 0 s

Time = 1649.82

water saturation: Min = 0.3 Max = 0.3
DICPCG:  Solving for p, Initial residual = 0.0929204, Final residual = 3.41615e-15, No Iterations 1
time step continuity errors : sum local = 7.16896e-13, global = -1.62931e-14, cumulative = -1.14255e-14
Coats Number mean: 7.77923e-13 max: 2.52299e-12
deltaT = 429.94
ExecutionTime = 0.04 s  ClockTime = 0 s

Time = 2079.76

water saturation: Min = 0.3 Max = 0.3
DICPCG:  Solving for p, Initial residual = 0.331395, Final residual = 1.77313e-14, No Iterations 1
time step continuity errors : sum local = 8.21159e-13, global = -3.91028e-14, cumulative = -5.05283e-14
Coats Number mean: 8.62849e-13 max: 3.02754e-12
deltaT = 515.912
ExecutionTime = 0.04 s  ClockTime = 0 s

Time = 2595.67

water saturation: Min = 0.3 Max = 0.3
DICPCG:  Solving for p, Initial residual = 0.174603, Final residual = 1.09612e-14, No Iterations 1
time step continuity errors : sum local = 1.19651e-12, global = 7.03829e-14, cumulative = 1.98546e-14
Coats Number mean: 4.06284e-12 max: 7.56862e-12
deltaT = 619.08
ExecutionTime = 0.04 s  ClockTime = 0 s

Time = 3214.75

water saturation: Min = 0.3 Max = 0.3
DICPCG:  Solving for p, Initial residual = 0.0657174, Final residual = 1.85382e-15, No Iterations 1
time step continuity errors : sum local = 1.1824e-12, global = 0, cumulative = 1.98546e-14
Coats Number mean: 1.67838e-12 max: 4.72271e-12
deltaT = 742.885
ExecutionTime = 0.05 s  ClockTime = 0 s

Time = 3957.64

water saturation: Min = 0.3 Max = 0.3
DICPCG:  Solving for p, Initial residual = 0.146944, Final residual = 2.28738e-14, No Iterations 1
time step continuity errors : sum local = 1.75669e-12, global = -2.02695e-13, cumulative = -1.8284e-13
Coats Number mean: 8.77103e-12 max: 1.30781e-11
deltaT = 891.416
ExecutionTime = 0.05 s  ClockTime = 0 s

Time = 4849.06

water saturation: Min = 0.3 Max = 0.3
DICPCG:  Solving for p, Initial residual = 0.0423301, Final residual = 1.86173e-15, No Iterations 1
time step continuity errors : sum local = 1.78362e-12, global = 0, cumulative = -1.8284e-13
Coats Number mean: 5.26235e-12 max: 1.25543e-11
deltaT = 1069.63
ExecutionTime = 0.06 s  ClockTime = 0 s

Time = 5918.69

water saturation: Min = 0.3 Max = 0.3
DICPCG:  Solving for p, Initial residual = 0.0806452, Final residual = 2.62872e-15, No Iterations 1
time step continuity errors : sum local = 2.28614e-12, global = -1.45924e-13, cumulative = -3.28764e-13
Coats Number mean: 7.49446e-12 max: 1.82026e-11
deltaT = 1283.5
ExecutionTime = 0.06 s  ClockTime = 0 s

Time = 7202.19

water saturation: Min = 0.3 Max = 0.3
DICPCG:  Solving for p, Initial residual = 0.0570801, Final residual = 4.40189e-15, No Iterations 1
time step continuity errors : sum local = 2.8016e-12, global = 1.16733e-13, cumulative = -2.12031e-13
Coats Number mean: 5.39273e-12 max: 1.35571e-11
deltaT = 1539.92
ExecutionTime = 0.06 s  ClockTime = 0 s

Time = 8742.11

water saturation: Min = 0.3 Max = 0.3
DICPCG:  Solving for p, Initial residual = 0.158683, Final residual = 6.04174e-15, No Iterations 1
time step continuity errors : sum local = 2.52099e-12, global = -1.40055e-13, cumulative = -3.52086e-13
Coats Number mean: 3.41579e-12 max: 1.08438e-11
deltaT = 1847.84
ExecutionTime = 0.07 s  ClockTime = 0 s

Time = 10589.9

water saturation: Min = 0.3 Max = 0.3
DICPCG:  Solving for p, Initial residual = 0.191781, Final residual = 8.09854e-15, No Iterations 1
time step continuity errors : sum local = 3.10911e-12, global = -4.2015e-13, cumulative = -7.72236e-13
Coats Number mean: 1.02145e-11 max: 2.49398e-11
deltaT = 2217.22
ExecutionTime = 0.08 s  ClockTime = 0 s

Time = 12807.2

water saturation: Min = 0.3 Max = 0.3
DICPCG:  Solving for p, Initial residual = 0.0775988, Final residual = 3.79248e-15, No Iterations 1
time step continuity errors : sum local = 4.03309e-12, global = 2.01655e-13, cumulative = -5.70581e-13
Coats Number mean: 5.51665e-12 max: 1.82153e-11
deltaT = 2660.25
ExecutionTime = 0.08 s  ClockTime = 0 s

Time = 15467.4

water saturation: Min = 0.3 Max = 0.3
DICPCG:  Solving for p, Initial residual = 0.389831, Final residual = 2.38133e-14, No Iterations 1
time step continuity errors : sum local = 6.29066e-12, global = 4.83897e-13, cumulative = -8.66846e-14
Coats Number mean: 1.84207e-11 max: 3.74658e-11
deltaT = 3191.91
ExecutionTime = 0.09 s  ClockTime = 0 s

Time = 18659.3

water saturation: Min = 0.3 Max = 0.3
DICPCG:  Solving for p, Initial residual = 0.0572738, Final residual = 3.44703e-15, No Iterations 1
time step continuity errors : sum local = 5.9512e-12, global = 0, cumulative = -8.66846e-14
Coats Number mean: 5.84394e-12 max: 1.68575e-11
deltaT = 3830
ExecutionTime = 0.1 s  ClockTime = 0 s

Time = 22489.3

water saturation: Min = 0.3 Max = 0.3
DICPCG:  Solving for p, Initial residual = 0.606936, Final residual = 1.28581e-14, No Iterations 1
time step continuity errors : sum local = 6.27006e-12, global = -3.48337e-13, cumulative = -4.35021e-13
Coats Number mean: 1.01587e-11 max: 2.47225e-11
deltaT = 4593.56
ExecutionTime = 0.1 s  ClockTime = 0 s

Time = 27082.9

water saturation: Min = 0.3 Max = 0.3
DICPCG:  Solving for p, Initial residual = 0.135838, Final residual = 4.9129e-15, No Iterations 1
time step continuity errors : sum local = 8.56452e-12, global = -1.88002e-12, cumulative = -2.31504e-12
Coats Number mean: 2.91121e-11 max: 9.70404e-11
deltaT = 5510.5
ExecutionTime = 0.11 s  ClockTime = 0 s

Time = 32593.4

water saturation: Min = 0.3 Max = 0.3
DICPCG:  Solving for p, Initial residual = 0.0527607, Final residual = 2.81288e-15, No Iterations 1
time step continuity errors : sum local = 1.07753e-11, global = -5.01177e-13, cumulative = -2.81622e-12
Coats Number mean: 1.54568e-11 max: 4.20374e-11
deltaT = 6610.91
ExecutionTime = 0.11 s  ClockTime = 0 s

Time = 39204.3

water saturation: Min = 0.3 Max = 0.3
DICPCG:  Solving for p, Initial residual = 0.171875, Final residual = 1.0103e-15, No Iterations 1
time step continuity errors : sum local = 1.23258e-11, global = -9.01888e-13, cumulative = -3.7181e-12
Coats Number mean: 2.2578e-11 max: 5.43113e-11
deltaT = 7927
ExecutionTime = 0.12 s  ClockTime = 0 s

Time = 47131.3

water saturation: Min = 0.3 Max = 0.3
DICPCG:  Solving for p, Initial residual = 0.179931, Final residual = 6.55723e-15, No Iterations 1
time step continuity errors : sum local = 1.80239e-11, global = -1.08143e-12, cumulative = -4.79954e-12
Coats Number mean: 4.63307e-11 max: 8.37303e-11
deltaT = 9505.39
ExecutionTime = 0.12 s  ClockTime = 0 s

Time = 56636.7

water saturation: Min = 0.3 Max = 0.3
DICPCG:  Solving for p, Initial residual = 0.0754986, Final residual = 3.96375e-15, No Iterations 1
time step continuity errors : sum local = 1.8587e-11, global = -4.32255e-13, cumulative = -5.23179e-12
Coats Number mean: 2.78895e-11 max: 6.13569e-11
deltaT = 11398.9
ExecutionTime = 0.12 s  ClockTime = 0 s

Time = 68035.6

water saturation: Min = 0.3 Max = 0.3
DICPCG:  Solving for p, Initial residual = 0.196429, Final residual = 5.69386e-15, No Iterations 1
time step continuity errors : sum local = 2.07345e-11, global = 1.55508e-12, cumulative = -3.67671e-12
Coats Number mean: 8.76264e-11 max: 1.80604e-10
deltaT = 13671.4
ExecutionTime = 0.13 s  ClockTime = 0 s

Time = 81707

water saturation: Min = 0.3 Max = 0.3
DICPCG:  Solving for p, Initial residual = 0.0694737, Final residual = 6.40081e-15, No Iterations 1
time step continuity errors : sum local = 3.10852e-11, global = -2.48681e-12, cumulative = -6.16352e-12
Coats Number mean: 7.18823e-11 max: 1.36384e-10
deltaT = 16395.2
ExecutionTime = 0.13 s  ClockTime = 0 s

Time = 98102.2

water saturation: Min = 0.3 Max = 0.3
DICPCG:  Solving for p, Initial residual = 0.101786, Final residual = 6.82054e-15, No Iterations 1
time step continuity errors : sum local = 3.80239e-11, global = 2.98227e-12, cumulative = -3.18125e-12
Coats Number mean: 8.65885e-11 max: 2.40524e-10
deltaT = 19636.5
ExecutionTime = 0.14 s  ClockTime = 0 s

Time = 117739

water saturation: Min = 0.3 Max = 0.3
DICPCG:  Solving for p, Initial residual = 0.084058, Final residual = 3.09929e-15, No Iterations 1
time step continuity errors : sum local = 4.46483e-11, global = 8.92967e-13, cumulative = -2.28829e-12
Coats Number mean: 6.01501e-11 max: 1.84368e-10
deltaT = 23542.2
ExecutionTime = 0.14 s  ClockTime = 0 s

Time = 141281

water saturation: Min = 0.3 Max = 0.3
DICPCG:  Solving for p, Initial residual = 0.768707, Final residual = 2.69293e-14, No Iterations 1
time step continuity errors : sum local = 4.60347e-11, global = 7.49401e-12, cumulative = 5.20573e-12
Coats Number mean: 1.08585e-10 max: 3.59187e-10
deltaT = 28234.9
ExecutionTime = 0.14 s  ClockTime = 0 s

Time = 169516

water saturation: Min = 0.3 Max = 0.3
DICPCG:  Solving for p, Initial residual = 0.10445, Final residual = 7.84114e-15, No Iterations 1
time step continuity errors : sum local = 5.7779e-11, global = -2.56795e-12, cumulative = 2.63777e-12
Coats Number mean: 1.79605e-10 max: 3.31374e-10
deltaT = 33746.9
ExecutionTime = 0.15 s  ClockTime = 0 s

Time = 203263

water saturation: Min = 0.3 Max = 0.3
DICPCG:  Solving for p, Initial residual = 0.0754567, Final residual = 5.64547e-15, No Iterations 1
time step continuity errors : sum local = 6.292e-11, global = 7.67317e-12, cumulative = 1.03109e-11
Coats Number mean: 1.75852e-10 max: 4.15867e-10
deltaT = 40367.2
ExecutionTime = 0.15 s  ClockTime = 0 s

Time = 243630

water saturation: Min = 0.3 Max = 0.3
DICPCG:  Solving for p, Initial residual = 0.0794431, Final residual = 5.46255e-15, No Iterations 1
time step continuity errors : sum local = 9.362e-11, global = 1.83569e-12, cumulative = 1.21466e-11
Coats Number mean: 1.28389e-10 max: 3.55321e-10
deltaT = 48255
ExecutionTime = 0.16 s  ClockTime = 0 s

Time = 291885

water saturation: Min = 0.3 Max = 0.3
DICPCG:  Solving for p, Initial residual = 0.652695, Final residual = 3.11182e-14, No Iterations 1
time step continuity errors : sum local = 8.33866e-11, global = 0, cumulative = 1.21466e-11
Coats Number mean: 2.07845e-10 max: 5.66335e-10
deltaT = 57573.2
ExecutionTime = 0.16 s  ClockTime = 0 s

Time = 349458

water saturation: Min = 0.3 Max = 0.3
DICPCG:  Solving for p, Initial residual = 0.104984, Final residual = 5.49213e-15, No Iterations 1
time step continuity errors : sum local = 1.33524e-10, global = -5.23625e-12, cumulative = 6.91038e-12
Coats Number mean: 2.40548e-10 max: 4.72987e-10
deltaT = 68516.9
ExecutionTime = 0.16 s  ClockTime = 0 s

Time = 417975

water saturation: Min = 0.3 Max = 0.3
DICPCG:  Solving for p, Initial residual = 0.107822, Final residual = 1.65958e-15, No Iterations 1
time step continuity errors : sum local = 1.21516e-10, global = -1.86947e-11, cumulative = -1.17843e-11
Coats Number mean: 4.19758e-10 max: 9.64961e-10
deltaT = 81406.2
ExecutionTime = 0.17 s  ClockTime = 0 s

Time = 499381

water saturation: Min = 0.3 Max = 0.3
DICPCG:  Solving for p, Initial residual = 0.0666667, Final residual = 2.3401e-15, No Iterations 1
time step continuity errors : sum local = 1.66587e-10, global = 7.40385e-12, cumulative = -4.38049e-12
Coats Number mean: 2.77068e-10 max: 7.64326e-10
deltaT = 96912.1
ExecutionTime = 0.17 s  ClockTime = 0 s

Time = 596293

water saturation: Min = 0.3 Max = 0.3
DICPCG:  Solving for p, Initial residual = 0.211382, Final residual = 1.03513e-14, No Iterations 1
time step continuity errors : sum local = 2.20353e-10, global = -2.20353e-11, cumulative = -2.64158e-11
Coats Number mean: 8.12096e-10 max: 1.70608e-09
deltaT = 114910
ExecutionTime = 0.17 s  ClockTime = 0 s

Time = 711203

water saturation: Min = 0.3 Max = 0.3
DICPCG:  Solving for p, Initial residual = 0.0599078, Final residual = 7.63484e-15, No Iterations 1
time step continuity errors : sum local = 2.14246e-10, global = 2.0902e-11, cumulative = -5.51374e-12
Coats Number mean: 9.08969e-10 max: 1.55091e-09
deltaT = 136703
ExecutionTime = 0.18 s  ClockTime = 0 s

Time = 847907

water saturation: Min = 0.3 Max = 0.3
DICPCG:  Solving for p, Initial residual = 0.0556492, Final residual = 3.1281e-15, No Iterations 1
time step continuity errors : sum local = 3.17044e-10, global = 6.21655e-12, cumulative = 7.02813e-13
Coats Number mean: 3.75428e-10 max: 1.28351e-09
deltaT = 162335
ExecutionTime = 0.18 s  ClockTime = 0 s

Time = 1.01024e+06

water saturation: Min = 0.3 Max = 0.3
DICPCG:  Solving for p, Initial residual = 0.246883, Final residual = 8.91501e-15, No Iterations 1
time step continuity errors : sum local = 3.24815e-10, global = -7.38215e-12, cumulative = -6.67934e-12
Coats Number mean: 5.88711e-10 max: 1.33365e-09
deltaT = 190744
ExecutionTime = 0.19 s  ClockTime = 0 s

Time = 1.20099e+06

water saturation: Min = 0.3 Max = 0.3
DICPCG:  Solving for p, Initial residual = 0.122549, Final residual = 7.05645e-15, No Iterations 1
time step continuity errors : sum local = 4.42376e-10, global = 2.60221e-11, cumulative = 1.93428e-11
Coats Number mean: 7.63372e-10 max: 2.01476e-09
deltaT = 225425
ExecutionTime = 0.19 s  ClockTime = 0 s

Time = 1.42641e+06

water saturation: Min = 0.3 Max = 0.3
DICPCG:  Solving for p, Initial residual = 0.12854, Final residual = 1.54454e-14, No Iterations 1
time step continuity errors : sum local = 4.10045e-10, global = 6.15068e-11, cumulative = 8.08495e-11
Coats Number mean: 2.55834e-09 max: 4.76217e-09
deltaT = 267170
ExecutionTime = 0.2 s  ClockTime = 0 s

Time = 1.69358e+06

water saturation: Min = 0.3 Max = 0.3
DICPCG:  Solving for p, Initial residual = 0.0365719, Final residual = 2.7062e-15, No Iterations 1
time step continuity errors : sum local = 5.83175e-10, global = 1.21495e-11, cumulative = 9.2999e-11
Coats Number mean: 9.43811e-10 max: 2.50847e-09
deltaT = 315746
ExecutionTime = 0.2 s  ClockTime = 0 s

Time = 2.00933e+06

water saturation: Min = 0.3 Max = 0.3
DICPCG:  Solving for p, Initial residual = 0.10989, Final residual = 6.93828e-15, No Iterations 1
time step continuity errors : sum local = 7.75358e-10, global = 1.00509e-10, cumulative = 1.93508e-10
Coats Number mean: 2.83485e-09 max: 5.37325e-09
deltaT = 368371
ExecutionTime = 0.21 s  ClockTime = 0 s

Time = 2.3777e+06

water saturation: Min = 0.3 Max = 0.3
DICPCG:  Solving for p, Initial residual = 0.0526316, Final residual = 7.23268e-15, No Iterations 1
time step continuity errors : sum local = 8.20826e-10, global = 1.67516e-11, cumulative = 2.1026e-10
Coats Number mean: 7.34962e-10 max: 1.51316e-09
deltaT = 417487
ExecutionTime = 0.21 s  ClockTime = 0 s

Time = 2.79518e+06

water saturation: Min = 0.3 Max = 0.3
DICPCG:  Solving for p, Initial residual = 0.466102, Final residual = 2.16023e-15, No Iterations 1
time step continuity errors : sum local = 6.83464e-10, global = 3.79702e-11, cumulative = 2.4823e-10
Coats Number mean: 7.39862e-10 max: 2.20489e-09
deltaT = 487068
ExecutionTime = 0.21 s  ClockTime = 0 s

Time = 3.28225e+06

water saturation: Min = 0.3 Max = 0.3
DICPCG:  Solving for p, Initial residual = 0.320261, Final residual = 1.68173e-14, No Iterations 1
time step continuity errors : sum local = 9.74569e-10, global = -1.55045e-10, cumulative = 9.31851e-11
Coats Number mean: 3.43554e-09 max: 8.28874e-09
deltaT = 535775
ExecutionTime = 0.22 s  ClockTime = 0 s

Time = 3.81803e+06

water saturation: Min = 0.3 Max = 0.3
DICPCG:  Solving for p, Initial residual = 0.0587476, Final residual = 2.56247e-15, No Iterations 1
time step continuity errors : sum local = 1.24257e-09, global = 0, cumulative = 9.31851e-11
Coats Number mean: 1.70405e-09 max: 3.77281e-09
deltaT = 602747
ExecutionTime = 0.22 s  ClockTime = 0 s

Time = 4.42077e+06

water saturation: Min = 0.3 Max = 0.3
DICPCG:  Solving for p, Initial residual = 0.170886, Final residual = 3.61455e-15, No Iterations 1
time step continuity errors : sum local = 1.01416e-09, global = -5.48195e-11, cumulative = 3.83656e-11
Coats Number mean: 3.51578e-09 max: 6.01291e-09
deltaT = 703204
ExecutionTime = 0.23 s  ClockTime = 0 s

Time = 5.12398e+06

water saturation: Min = 0.3 Max = 0.3
DICPCG:  Solving for p, Initial residual = 0.0770578, Final residual = 5.87971e-16, No Iterations 1
time step continuity errors : sum local = 1.3111e-09, global = -9.59341e-11, cumulative = -5.75685e-11
Coats Number mean: 3.63958e-09 max: 6.18976e-09
deltaT = 703204
ExecutionTime = 0.23 s  ClockTime = 0 s

Time = 5.82718e+06

water saturation: Min = 0.3 Max = 0.3
DICPCG:  Solving for p, Initial residual = 0.0818767, Final residual = 6.35881e-15, No Iterations 1
time step continuity errors : sum local = 1.37506e-09, global = 6.39561e-11, cumulative = 6.38761e-12
Coats Number mean: 3.07837e-09 max: 8.25301e-09
deltaT = 703204
ExecutionTime = 0.23 s  ClockTime = 0 s

Time = 6.53039e+06

water saturation: Min = 0.3 Max = 0.3
DICPCG:  Solving for p, Initial residual = 0.0850131, Final residual = 2.97668e-15, No Iterations 1
time step continuity errors : sum local = 1.37506e-09, global = 6.39561e-11, cumulative = 7.03437e-11
Coats Number mean: 2.1953e-09 max: 6.60241e-09
deltaT = 703204
ExecutionTime = 0.24 s  ClockTime = 0 s

Time = 7.23359e+06

water saturation: Min = 0.3 Max = 0.3
DICPCG:  Solving for p, Initial residual = 0.348684, Final residual = 9.77108e-15, No Iterations 1
time step continuity errors : sum local = 1.27912e-09, global = 6.39561e-11, cumulative = 1.343e-10
Coats Number mean: 2.56669e-09 max: 5.77711e-09
deltaT = 703204
ExecutionTime = 0.24 s  ClockTime = 0 s

Time = 7.9368e+06

water saturation: Min = 0.3 Max = 0.3
DICPCG:  Solving for p, Initial residual = 0.112098, Final residual = 1.03264e-14, No Iterations 1
time step continuity errors : sum local = 1.34308e-09, global = 0, cumulative = 1.343e-10
Coats Number mean: 1.6506e-09 max: 3.71386e-09
deltaT = 703204
ExecutionTime = 0.24 s  ClockTime = 0 s

Time = 8.64e+06

water saturation: Min = 0.3 Max = 0.3
DICPCG:  Solving for p, Initial residual = 0.295597, Final residual = 1.10813e-14, No Iterations 1
time step continuity errors : sum local = 1.37506e-09, global = 6.39561e-11, cumulative = 1.98256e-10
Coats Number mean: 2.71524e-09 max: 7.42771e-09
deltaT = 785455
ExecutionTime = 0.25 s  ClockTime = 0 s

Time = 9.42545e+06

water saturation: Min = 0.3 Max = 0.3
DICPCG:  Solving for p, Initial residual = 0.0982318, Final residual = 4.7805e-15, No Iterations 1
time step continuity errors : sum local = 1.60733e-09, global = -3.57183e-11, cumulative = 1.62537e-10
Coats Number mean: 2.79315e-09 max: 5.531e-09
deltaT = 785455
ExecutionTime = 0.25 s  ClockTime = 0 s

Time = 1.02109e+07

water saturation: Min = 0.3 Max = 0.3
DICPCG:  Solving for p, Initial residual = 0.173554, Final residual = 1.65946e-14, No Iterations 1
time step continuity errors : sum local = 1.57161e-09, global = 2.85747e-10, cumulative = 4.48284e-10
Coats Number mean: 8.09369e-09 max: 1.42884e-08
deltaT = 785455
ExecutionTime = 0.26 s  ClockTime = 0 s

Time = 1.09964e+07

water saturation: Min = 0.3 Max = 0.3
DICPCG:  Solving for p, Initial residual = 0.0440621, Final residual = 1.62951e-15, No Iterations 1
time step continuity errors : sum local = 1.92879e-09, global = 1.07155e-10, cumulative = 5.55439e-10
Coats Number mean: 3.92701e-09 max: 1.01402e-08
deltaT = 785455
ExecutionTime = 0.26 s  ClockTime = 0 s

Time = 1.17818e+07

water saturation: Min = 0.3 Max = 0.3
DICPCG:  Solving for p, Initial residual = 0.0840979, Final residual = 9.91528e-15, No Iterations 1
time step continuity errors : sum local = 1.46445e-09, global = -1.78592e-10, cumulative = 3.76847e-10
Coats Number mean: 2.6641e-09 max: 9.21833e-09
deltaT = 785455
ExecutionTime = 0.27 s  ClockTime = 0 s

Time = 1.25673e+07

water saturation: Min = 0.3 Max = 0.3
DICPCG:  Solving for p, Initial residual = 0.100552, Final residual = 3.66656e-15, No Iterations 1
time step continuity errors : sum local = 1.7502e-09, global = 7.14367e-11, cumulative = 4.48284e-10
Coats Number mean: 2.93143e-09 max: 6.45283e-09
deltaT = 785455
ExecutionTime = 0.27 s  ClockTime = 0 s

Time = 1.33527e+07

water saturation: Min = 0.3 Max = 0.3
DICPCG:  Solving for p, Initial residual = 0.259259, Final residual = 6.32174e-15, No Iterations 1
time step continuity errors : sum local = 1.50017e-09, global = 3.57183e-11, cumulative = 4.84003e-10
Coats Number mean: 2.9683e-09 max: 8.29649e-09
deltaT = 785455
ExecutionTime = 0.28 s  ClockTime = 0 s

Time = 1.41382e+07

water saturation: Min = 0.3 Max = 0.3
DICPCG:  Solving for p, Initial residual = 0.247706, Final residual = 1.88453e-14, No Iterations 1
time step continuity errors : sum local = 1.67876e-09, global = 3.57183e-11, cumulative = 5.19721e-10
Coats Number mean: 7.56825e-09 max: 1.42884e-08
deltaT = 785455
ExecutionTime = 0.28 s  ClockTime = 0 s

Time = 1.49236e+07

water saturation: Min = 0.3 Max = 0.3
DICPCG:  Solving for p, Initial residual = 0.0571924, Final residual = 3.33221e-15, No Iterations 1
time step continuity errors : sum local = 1.28586e-09, global = 0, cumulative = 5.19721e-10
Coats Number mean: 1.71461e-09 max: 4.60916e-09
deltaT = 785455
ExecutionTime = 0.28 s  ClockTime = 0 s

Time = 1.57091e+07

water saturation: Min = 0.3 Max = 0.3
DICPCG:  Solving for p, Initial residual = 0.402299, Final residual = 3.09161e-15, No Iterations 1
time step continuity errors : sum local = 1.50017e-09, global = 7.14367e-11, cumulative = 5.91158e-10
Coats Number mean: 1.77914e-09 max: 5.07008e-09
deltaT = 785455
ExecutionTime = 0.28 s  ClockTime = 0 s

Time = 1.64945e+07

water saturation: Min = 0.3 Max = 0.3
DICPCG:  Solving for p, Initial residual = 0.266272, Final residual = 2.60508e-14, No Iterations 1
time step continuity errors : sum local = 1.42873e-09, global = 2.1431e-10, cumulative = 8.05468e-10
Coats Number mean: 7.15342e-09 max: 1.38275e-08
deltaT = 785455
ExecutionTime = 0.29 s  ClockTime = 0 s

Time = 1.728e+07

water saturation: Min = 0.3 Max = 0.3
DICPCG:  Solving for p, Initial residual = 0.0500911, Final residual = 1.30972e-15, No Iterations 1
time step continuity errors : sum local = 1.82164e-09, global = 1.42873e-10, cumulative = 9.48341e-10
Coats Number mean: 5.12539e-09 max: 9.21833e-09
deltaT = 864000
ExecutionTime = 0.29 s  ClockTime = 0 s

Time = 1.8144e+07

water saturation: Min = 0.3 Max = 0.3
DICPCG:  Solving for p, Initial residual = 0.0770308, Final residual = 3.50793e-15, No Iterations 1
time step continuity errors : sum local = 1.72877e-09, global = -3.92902e-11, cumulative = 9.09051e-10
Coats Number mean: 1.34864e-09 max: 4.05606e-09
deltaT = 864000
ExecutionTime = 0.3 s  ClockTime = 0 s

Time = 1.9008e+07

water saturation: Min = 0.3 Max = 0.3
DICPCG:  Solving for p, Initial residual = 0.340351, Final residual = 4.34728e-14, No Iterations 1
time step continuity errors : sum local = 1.92522e-09, global = 2.35741e-10, cumulative = 1.14479e-09
Coats Number mean: 9.39993e-09 max: 1.41962e-08
deltaT = 864000
ExecutionTime = 0.3 s  ClockTime = 0 s

Time = 1.9872e+07

water saturation: Min = 0.3 Max = 0.3
DICPCG:  Solving for p, Initial residual = 0.0448663, Final residual = 2.6199e-15, No Iterations 1
time step continuity errors : sum local = 2.23954e-09, global = 1.96451e-10, cumulative = 1.34124e-09
Coats Number mean: 3.88368e-09 max: 1.06472e-08
deltaT = 864000
ExecutionTime = 0.3 s  ClockTime = 1 s

Time = 2.0736e+07

water saturation: Min = 0.3 Max = 0.3
DICPCG:  Solving for p, Initial residual = 0.111727, Final residual = 5.63579e-15, No Iterations 1
time step continuity errors : sum local = 1.6109e-09, global = -3.92902e-11, cumulative = 1.30195e-09
Coats Number mean: 3.74172e-09 max: 6.5911e-09
deltaT = 864000
ExecutionTime = 0.31 s  ClockTime = 1 s

Time = 2.16e+07

water saturation: Min = 0.3 Max = 0.3
DICPCG:  Solving for p, Initial residual = 0.104741, Final residual = 6.57994e-15, No Iterations 1
time step continuity errors : sum local = 1.65019e-09, global = -3.14321e-10, cumulative = 9.87631e-10
Coats Number mean: 8.92334e-09 max: 1.67313e-08
deltaT = 864000
ExecutionTime = 0.31 s  ClockTime = 1 s

Time = 2.2464e+07

water saturation: Min = 0.3 Max = 0.3
DICPCG:  Solving for p, Initial residual = 0.0463853, Final residual = 3.83702e-15, No Iterations 1
time step continuity errors : sum local = 1.53232e-09, global = 3.92902e-11, cumulative = 1.02692e-09
Coats Number mean: 1.77453e-09 max: 5.57709e-09
deltaT = 864000
ExecutionTime = 0.31 s  ClockTime = 1 s

Time = 2.3328e+07

water saturation: Min = 0.3 Max = 0.3
DICPCG:  Solving for p, Initial residual = 0.182927, Final residual = 5.93608e-15, No Iterations 1
time step continuity errors : sum local = 1.25729e-09, global = 1.96451e-10, cumulative = 1.22337e-09
Coats Number mean: 4.33999e-09 max: 1.26752e-08
deltaT = 864000
ExecutionTime = 0.32 s  ClockTime = 1 s

Time = 2.4192e+07

water saturation: Min = 0.3 Max = 0.3
DICPCG:  Solving for p, Initial residual = 0.0621387, Final residual = 4.73738e-15, No Iterations 1
time step continuity errors : sum local = 1.37516e-09, global = 1.96451e-10, cumulative = 1.41982e-09
Coats Number mean: 5.69877e-09 max: 1.41962e-08
deltaT = 864000
ExecutionTime = 0.32 s  ClockTime = 1 s

Time = 2.5056e+07

water saturation: Min = 0.3 Max = 0.3
DICPCG:  Solving for p, Initial residual = 0.0491991, Final residual = 3.46976e-15, No Iterations 1
time step continuity errors : sum local = 1.76806e-09, global = 3.92902e-11, cumulative = 1.45911e-09
Coats Number mean: 3.14345e-09 max: 7.60512e-09
deltaT = 864000
ExecutionTime = 0.33 s  ClockTime = 1 s

Time = 2.592e+07

water saturation: Min = 0.3 Max = 0.3
DICPCG:  Solving for p, Initial residual = 0.214022, Final residual = 1.67836e-14, No Iterations 1
time step continuity errors : sum local = 1.96451e-09, global = 7.85803e-11, cumulative = 1.53769e-09
Coats Number mean: 5.81031e-09 max: 1.26752e-08
deltaT = 864000
ExecutionTime = 0.33 s  ClockTime = 1 s

Time = 2.6784e+07

water saturation: Min = 0.3 Max = 0.3
DICPCG:  Solving for p, Initial residual = 0.0608899, Final residual = 2.05248e-15, No Iterations 1
time step continuity errors : sum local = 1.45374e-09, global = 7.85803e-11, cumulative = 1.61627e-09
Coats Number mean: 3.70116e-09 max: 6.5911e-09
deltaT = 864000
ExecutionTime = 0.34 s  ClockTime = 1 s

Time = 2.7648e+07

water saturation: Min = 0.3 Max = 0.3
DICPCG:  Solving for p, Initial residual = 0.118568, Final residual = 3.20648e-15, No Iterations 1
time step continuity errors : sum local = 1.37516e-09, global = 0, cumulative = 1.61627e-09
Coats Number mean: 1.82523e-09 max: 4.05606e-09
deltaT = 864000
ExecutionTime = 0.34 s  ClockTime = 1 s

Time = 2.8512e+07

water saturation: Min = 0.3 Max = 0.3
DICPCG:  Solving for p, Initial residual = 0.210084, Final residual = 6.83114e-15, No Iterations 1
time step continuity errors : sum local = 1.76806e-09, global = 2.35741e-10, cumulative = 1.85201e-09
Coats Number mean: 4.83686e-09 max: 1.26752e-08
deltaT = 864000
ExecutionTime = 0.34 s  ClockTime = 1 s

Time = 2.9376e+07

water saturation: Min = 0.3 Max = 0.3
DICPCG:  Solving for p, Initial residual = 0.0806202, Final residual = 1.11091e-15, No Iterations 1
time step continuity errors : sum local = 1.92522e-09, global = 7.85803e-11, cumulative = 1.9306e-09
Coats Number mean: 3.54906e-09 max: 8.11213e-09
deltaT = 864000
ExecutionTime = 0.35 s  ClockTime = 1 s

Time = 3.024e+07

water saturation: Min = 0.3 Max = 0.3
DICPCG:  Solving for p, Initial residual = 0.103935, Final residual = 5.00866e-15, No Iterations 1
time step continuity errors : sum local = 1.92522e-09, global = -1.96451e-10, cumulative = 1.73414e-09
Coats Number mean: 3.25499e-09 max: 9.63315e-09
deltaT = 864000
ExecutionTime = 0.35 s  ClockTime = 1 s

Time = 3.1104e+07

water saturation: Min = 0.3 Max = 0.3
DICPCG:  Solving for p, Initial residual = 0.113006, Final residual = 6.70016e-15, No Iterations 1
time step continuity errors : sum local = 1.53232e-09, global = 7.85803e-11, cumulative = 1.81272e-09
Coats Number mean: 3.29555e-09 max: 6.5911e-09
deltaT = 864000
ExecutionTime = 0.36 s  ClockTime = 1 s

Time = 3.1968e+07

water saturation: Min = 0.3 Max = 0.3
DICPCG:  Solving for p, Initial residual = 0.111369, Final residual = 1.86961e-15, No Iterations 1
time step continuity errors : sum local = 1.76806e-09, global = 0, cumulative = 1.81272e-09
Coats Number mean: 1.88607e-09 max: 5.07008e-09
deltaT = 864000
ExecutionTime = 0.36 s  ClockTime = 1 s

Time = 3.2832e+07

water saturation: Min = 0.3 Max = 0.3
DICPCG:  Solving for p, Initial residual = 0.299703, Final residual = 3.45036e-14, No Iterations 1
time step continuity errors : sum local = 1.92522e-09, global = -1.57161e-10, cumulative = 1.65556e-09
Coats Number mean: 6.73307e-09 max: 1.26752e-08
deltaT = 864000
ExecutionTime = 0.36 s  ClockTime = 1 s

Time = 3.3696e+07

water saturation: Min = 0.3 Max = 0.3
DICPCG:  Solving for p, Initial residual = 0.0626118, Final residual = 5.11219e-15, No Iterations 1
time step continuity errors : sum local = 1.68948e-09, global = 1.57161e-10, cumulative = 1.81272e-09
Coats Number mean: 3.69102e-09 max: 8.11213e-09
deltaT = 864000
ExecutionTime = 0.37 s  ClockTime = 1 s

Time = 3.456e+07

water saturation: Min = 0.3 Max = 0.3
DICPCG:  Solving for p, Initial residual = 0.0882917, Final residual = 3.80757e-15, No Iterations 1
time step continuity errors : sum local = 1.41445e-09, global = -3.92902e-11, cumulative = 1.77343e-09
Coats Number mean: 1.59201e-09 max: 4.05606e-09
deltaT = 864000
ExecutionTime = 0.37 s  ClockTime = 1 s

Time = 3.5424e+07

water saturation: Min = 0.3 Max = 0.3
DICPCG:  Solving for p, Initial residual = 0.26943, Final residual = 2.55397e-14, No Iterations 1
time step continuity errors : sum local = 1.84664e-09, global = -3.92902e-10, cumulative = 1.38053e-09
Coats Number mean: 9.51147e-09 max: 2.23084e-08
deltaT = 864000
ExecutionTime = 0.38 s  ClockTime = 1 s

Time = 3.6288e+07

water saturation: Min = 0.3 Max = 0.3
DICPCG:  Solving for p, Initial residual = 0.0411272, Final residual = 3.62577e-15, No Iterations 1
time step continuity errors : sum local = 1.33587e-09, global = -1.17871e-10, cumulative = 1.26266e-09
Coats Number mean: 1.42976e-09 max: 5.57709e-09
deltaT = 864000
ExecutionTime = 0.38 s  ClockTime = 1 s

Time = 3.7152e+07

water saturation: Min = 0.3 Max = 0.3
DICPCG:  Solving for p, Initial residual = 0.24105, Final residual = 1.71541e-14, No Iterations 1
time step continuity errors : sum local = 1.96451e-09, global = 7.85803e-11, cumulative = 1.34124e-09
Coats Number mean: 4.54279e-09 max: 1.01402e-08
deltaT = 864000
ExecutionTime = 0.39 s  ClockTime = 1 s

Time = 3.8016e+07

water saturation: Min = 0.3 Max = 0.3
DICPCG:  Solving for p, Initial residual = 0.0806202, Final residual = 5.48708e-15, No Iterations 1
time step continuity errors : sum local = 1.92522e-09, global = -3.92902e-11, cumulative = 1.30195e-09
Coats Number mean: 3.85326e-09 max: 9.12614e-09
deltaT = 864000
ExecutionTime = 0.39 s  ClockTime = 1 s

Time = 3.888e+07

water saturation: Min = 0.3 Max = 0.3
DICPCG:  Solving for p, Initial residual = 0.0989899, Final residual = 3.89139e-15, No Iterations 1
time step continuity errors : sum local = 1.6109e-09, global = 7.85803e-11, cumulative = 1.38053e-09
Coats Number mean: 3.90396e-09 max: 8.61914e-09
deltaT = 864000
ExecutionTime = 0.4 s  ClockTime = 1 s

Time = 3.9744e+07

water saturation: Min = 0.3 Max = 0.3
DICPCG:  Solving for p, Initial residual = 0.258537, Final residual = 9.71923e-15, No Iterations 1
time step continuity errors : sum local = 1.72877e-09, global = 1.57161e-10, cumulative = 1.53769e-09
Coats Number mean: 2.10915e-09 max: 7.60512e-09
deltaT = 864000
ExecutionTime = 0.4 s  ClockTime = 1 s

Time = 4.0608e+07

water saturation: Min = 0.3 Max = 0.3
DICPCG:  Solving for p, Initial residual = 0.162162, Final residual = 3.8102e-15, No Iterations 1
time step continuity errors : sum local = 1.45374e-09, global = 3.92902e-11, cumulative = 1.57698e-09
Coats Number mean: 2.50462e-09 max: 6.0841e-09
deltaT = 864000
ExecutionTime = 0.4 s  ClockTime = 1 s

Time = 4.1472e+07

water saturation: Min = 0.3 Max = 0.3
DICPCG:  Solving for p, Initial residual = 0.419355, Final residual = 9.6661e-15, No Iterations 1
time step continuity errors : sum local = 1.68948e-09, global = 1.17871e-10, cumulative = 1.69485e-09
Coats Number mean: 3.98508e-09 max: 9.12614e-09
deltaT = 864000
ExecutionTime = 0.41 s  ClockTime = 1 s

Time = 4.2336e+07

water saturation: Min = 0.3 Max = 0.3
DICPCG:  Solving for p, Initial residual = 0.126187, Final residual = 4.30622e-15, No Iterations 1
time step continuity errors : sum local = 1.45374e-09, global = -3.92902e-11, cumulative = 1.65556e-09
Coats Number mean: 1.88607e-09 max: 6.0841e-09
deltaT = 864000
ExecutionTime = 0.41 s  ClockTime = 1 s

Time = 4.32e+07

water saturation: Min = 0.3 Max = 0.3
DICPCG:  Solving for p, Initial residual = 0.361868, Final residual = 2.2557e-14, No Iterations 1
time step continuity errors : sum local = 1.29658e-09, global = -1.57161e-10, cumulative = 1.4984e-09
Coats Number mean: 6.77363e-09 max: 1.21682e-08
deltaT = 864000
ExecutionTime = 0.42 s  ClockTime = 1 s

Time = 4.4064e+07

water saturation: Min = 0.3 Max = 0.3
DICPCG:  Solving for p, Initial residual = 0.0504612, Final residual = 4.67342e-16, No Iterations 1
time step continuity errors : sum local = 1.84664e-09, global = -3.14321e-10, cumulative = 1.18408e-09
Coats Number mean: 6.2362e-09 max: 1.57172e-08
deltaT = 864000
ExecutionTime = 0.42 s  ClockTime = 1 s

Time = 4.4928e+07

water saturation: Min = 0.3 Max = 0.3
DICPCG:  Solving for p, Initial residual = 0.0502674, Final residual = 1.30727e-15, No Iterations 1
time step continuity errors : sum local = 1.49303e-09, global = -1.17871e-10, cumulative = 1.06621e-09
Coats Number mean: 4.96868e-09 max: 9.12614e-09
deltaT = 864000
ExecutionTime = 0.42 s  ClockTime = 1 s

Time = 4.5792e+07

water saturation: Min = 0.3 Max = 0.3
DICPCG:  Solving for p, Initial residual = 0.0740157, Final residual = 6.43038e-15, No Iterations 1
time step continuity errors : sum local = 1.92522e-09, global = 0, cumulative = 1.06621e-09
Coats Number mean: 2.44378e-09 max: 4.56307e-09
deltaT = 864000
ExecutionTime = 0.43 s  ClockTime = 1 s

Time = 4.6656e+07

water saturation: Min = 0.3 Max = 0.3
DICPCG:  Solving for p, Initial residual = 0.171806, Final residual = 4.91954e-15, No Iterations 1
time step continuity errors : sum local = 1.80735e-09, global = 1.96451e-10, cumulative = 1.26266e-09
Coats Number mean: 4.28929e-09 max: 9.12614e-09
deltaT = 864000
ExecutionTime = 0.43 s  ClockTime = 1 s

Time = 4.752e+07

water saturation: Min = 0.3 Max = 0.3
DICPCG:  Solving for p, Initial residual = 0.0893761, Final residual = 4.03406e-15, No Iterations 1
time step continuity errors : sum local = 1.92522e-09, global = 2.75031e-10, cumulative = 1.53769e-09
Coats Number mean: 6.46942e-09 max: 1.47032e-08
deltaT = 864000
ExecutionTime = 0.43 s  ClockTime = 1 s

Time = 4.8384e+07

water saturation: Min = 0.3 Max = 0.3
DICPCG:  Solving for p, Initial residual = 0.0526316, Final residual = 3.78431e-15, No Iterations 1
time step continuity errors : sum local = 1.33587e-09, global = -3.92902e-11, cumulative = 1.4984e-09
Coats Number mean: 1.76439e-09 max: 4.56307e-09
deltaT = 864000
ExecutionTime = 0.44 s  ClockTime = 1 s

Time = 4.9248e+07

water saturation: Min = 0.3 Max = 0.3
DICPCG:  Solving for p, Initial residual = 0.516484, Final residual = 1.07082e-14, No Iterations 1
time step continuity errors : sum local = 1.76806e-09, global = 0, cumulative = 1.4984e-09
Coats Number mean: 2.22069e-09 max: 6.0841e-09
deltaT = 864000
ExecutionTime = 0.44 s  ClockTime = 1 s

Time = 5.0112e+07

water saturation: Min = 0.3 Max = 0.3
DICPCG:  Solving for p, Initial residual = 0.225673, Final residual = 5.04267e-15, No Iterations 1
time step continuity errors : sum local = 1.72877e-09, global = -7.85803e-11, cumulative = 1.41982e-09
Coats Number mean: 2.09901e-09 max: 5.57709e-09
deltaT = 864000
ExecutionTime = 0.44 s  ClockTime = 1 s

Time = 5.0976e+07

water saturation: Min = 0.3 Max = 0.3
DICPCG:  Solving for p, Initial residual = 0.367347, Final residual = 7.6409e-15, No Iterations 1
time step continuity errors : sum local = 1.96451e-09, global = -3.92902e-11, cumulative = 1.38053e-09
Coats Number mean: 3.36653e-09 max: 8.11213e-09
deltaT = 864000
ExecutionTime = 0.45 s  ClockTime = 1 s

Time = 5.184e+07

water saturation: Min = 0.3 Max = 0.3
DICPCG:  Solving for p, Initial residual = 0.151773, Final residual = 8.0892e-15, No Iterations 1
time step continuity errors : sum local = 1.37516e-09, global = 0, cumulative = 1.38053e-09
Coats Number mean: 1.39934e-09 max: 6.0841e-09
deltaT = 864000
ExecutionTime = 0.45 s  ClockTime = 1 s

Time = 5.2704e+07

water saturation: Min = 0.3 Max = 0.3
DICPCG:  Solving for p, Initial residual = 0.625, Final residual = 2.83051e-14, No Iterations 1
time step continuity errors : sum local = 1.68948e-09, global = -1.96451e-10, cumulative = 1.18408e-09
Coats Number mean: 5.2526e-09 max: 1.36892e-08
deltaT = 864000
ExecutionTime = 0.46 s  ClockTime = 1 s

Time = 5.3568e+07

water saturation: Min = 0.3 Max = 0.3
DICPCG:  Solving for p, Initial residual = 0.0845839, Final residual = 7.65872e-15, No Iterations 1
time step continuity errors : sum local = 2.12167e-09, global = 3.14321e-10, cumulative = 1.4984e-09
Coats Number mean: 7.40232e-09 max: 1.62243e-08
deltaT = 864000
ExecutionTime = 0.46 s  ClockTime = 1 s

Time = 5.4432e+07

water saturation: Min = 0.3 Max = 0.3
DICPCG:  Solving for p, Initial residual = 0.0498589, Final residual = 3.40336e-15, No Iterations 1
time step continuity errors : sum local = 1.76806e-09, global = 0, cumulative = 1.4984e-09
Coats Number mean: 2.76826e-09 max: 5.57709e-09
deltaT = 864000
ExecutionTime = 0.47 s  ClockTime = 1 s

Time = 5.5296e+07

water saturation: Min = 0.3 Max = 0.3
DICPCG:  Solving for p, Initial residual = 0.143258, Final residual = 7.03042e-15, No Iterations 1
time step continuity errors : sum local = 1.88593e-09, global = 0, cumulative = 1.4984e-09
Coats Number mean: 3.42737e-09 max: 7.09811e-09
deltaT = 864000
ExecutionTime = 0.47 s  ClockTime = 1 s

Time = 5.616e+07

water saturation: Min = 0.3 Max = 0.3
DICPCG:  Solving for p, Initial residual = 0.240275, Final residual = 7.0099e-15, No Iterations 1
time step continuity errors : sum local = 1.57161e-09, global = -1.17871e-10, cumulative = 1.38053e-09
Coats Number mean: 3.17387e-09 max: 9.63315e-09
deltaT = 864000
ExecutionTime = 0.47 s  ClockTime = 1 s

Time = 5.7024e+07

water saturation: Min = 0.3 Max = 0.3
DICPCG:  Solving for p, Initial residual = 0.237875, Final residual = 1.9825e-14, No Iterations 1
time step continuity errors : sum local = 1.92522e-09, global = 3.14321e-10, cumulative = 1.69485e-09
Coats Number mean: 1.07486e-08 max: 1.92663e-08
deltaT = 864000
ExecutionTime = 0.48 s  ClockTime = 1 s

Time = 5.7888e+07

water saturation: Min = 0.3 Max = 0.3
DICPCG:  Solving for p, Initial residual = 0.0347349, Final residual = 6.33432e-15, No Iterations 1
time step continuity errors : sum local = 2.12167e-09, global = -2.75031e-10, cumulative = 1.41982e-09
Coats Number mean: 8.39605e-09 max: 1.72383e-08
deltaT = 864000
ExecutionTime = 0.48 s  ClockTime = 1 s

Time = 5.8752e+07

water saturation: Min = 0.3 Max = 0.3
DICPCG:  Solving for p, Initial residual = 0.047541, Final residual = 5.04951e-15, No Iterations 1
time step continuity errors : sum local = 1.80735e-09, global = 2.35741e-10, cumulative = 1.65556e-09
Coats Number mean: 5.79003e-09 max: 1.52102e-08
deltaT = 864000
ExecutionTime = 0.48 s  ClockTime = 1 s

Time = 5.9616e+07

water saturation: Min = 0.3 Max = 0.3
DICPCG:  Solving for p, Initial residual = 0.0553291, Final residual = 4.11604e-15, No Iterations 1
time step continuity errors : sum local = 1.80735e-09, global = 3.92902e-11, cumulative = 1.69485e-09
Coats Number mean: 2.91023e-09 max: 6.5911e-09
deltaT = 864000
ExecutionTime = 0.49 s  ClockTime = 1 s

Time = 6.048e+07

water saturation: Min = 0.3 Max = 0.3
DICPCG:  Solving for p, Initial residual = 0.43379, Final residual = 3.78834e-14, No Iterations 1
time step continuity errors : sum local = 1.96451e-09, global = 2.35741e-10, cumulative = 1.9306e-09
Coats Number mean: 7.84848e-09 max: 1.21682e-08
deltaT = 864000
ExecutionTime = 0.49 s  ClockTime = 1 s

Time = 6.1344e+07

water saturation: Min = 0.3 Max = 0.3
DICPCG:  Solving for p, Initial residual = 0.0618221, Final residual = 7.1958e-15, No Iterations 1
time step continuity errors : sum local = 1.84664e-09, global = -1.17871e-10, cumulative = 1.81272e-09
Coats Number mean: 4.75573e-09 max: 1.06472e-08
deltaT = 864000
ExecutionTime = 0.5 s  ClockTime = 1 s

Time = 6.2208e+07

water saturation: Min = 0.3 Max = 0.3
DICPCG:  Solving for p, Initial residual = 0.0764749, Final residual = 1.13128e-14, No Iterations 1
time step continuity errors : sum local = 1.57161e-09, global = 2.75031e-10, cumulative = 2.08776e-09
Coats Number mean: 9.10586e-09 max: 1.77453e-08
deltaT = 864000
ExecutionTime = 0.5 s  ClockTime = 1 s

Time = 6.3072e+07

water saturation: Min = 0.3 Max = 0.3
DICPCG:  Solving for p, Initial residual = 0.0419497, Final residual = 4.46422e-15, No Iterations 1
time step continuity errors : sum local = 1.76806e-09, global = -3.92902e-11, cumulative = 2.04847e-09
Coats Number mean: 2.7784e-09 max: 6.0841e-09
deltaT = 864000
ExecutionTime = 0.51 s  ClockTime = 1 s

Time = 6.3936e+07

water saturation: Min = 0.3 Max = 0.3
DICPCG:  Solving for p, Initial residual = 0.171975, Final residual = 1.03527e-14, No Iterations 1
time step continuity errors : sum local = 1.80735e-09, global = 3.92902e-11, cumulative = 2.08776e-09
Coats Number mean: 4.53265e-09 max: 1.06472e-08
deltaT = 864000
ExecutionTime = 0.51 s  ClockTime = 1 s

Time = 6.48e+07

water saturation: Min = 0.3 Max = 0.3
DICPCG:  Solving for p, Initial residual = 0.0960929, Final residual = 4.12553e-15, No Iterations 1
time step continuity errors : sum local = 1.6109e-09, global = -3.92902e-11, cumulative = 2.04847e-09
Coats Number mean: 1.88607e-09 max: 4.56307e-09
deltaT = 864000
ExecutionTime = 0.51 s  ClockTime = 1 s

Time = 6.5664e+07

water saturation: Min = 0.3 Max = 0.3
DICPCG:  Solving for p, Initial residual = 0.263158, Final residual = 2.29115e-14, No Iterations 1
time step continuity errors : sum local = 1.72877e-09, global = -1.17871e-10, cumulative = 1.9306e-09
Coats Number mean: 6.3883e-09 max: 1.11542e-08
deltaT = 864000
ExecutionTime = 0.52 s  ClockTime = 1 s

Time = 6.6528e+07

water saturation: Min = 0.3 Max = 0.3
DICPCG:  Solving for p, Initial residual = 0.0567164, Final residual = 4.75394e-15, No Iterations 1
time step continuity errors : sum local = 1.72877e-09, global = -2.75031e-10, cumulative = 1.65556e-09
Coats Number mean: 8.41633e-09 max: 1.62243e-08
deltaT = 864000
ExecutionTime = 0.52 s  ClockTime = 1 s

Time = 6.7392e+07

water saturation: Min = 0.3 Max = 0.3
DICPCG:  Solving for p, Initial residual = 0.0444258, Final residual = 7.05471e-15, No Iterations 1
time step continuity errors : sum local = 1.76806e-09, global = 3.92902e-11, cumulative = 1.69485e-09
Coats Number mean: 4.23859e-09 max: 1.11542e-08
deltaT = 864000
ExecutionTime = 0.52 s  ClockTime = 1 s

Time = 6.8256e+07

water saturation: Min = 0.3 Max = 0.3
DICPCG:  Solving for p, Initial residual = 0.0857143, Final residual = 8.87689e-15, No Iterations 1
time step continuity errors : sum local = 1.92522e-09, global = 7.85803e-11, cumulative = 1.77343e-09
Coats Number mean: 5.13092e-09 max: 1.06472e-08
deltaT = 864000
ExecutionTime = 0.53 s  ClockTime = 1 s

Time = 6.912e+07

water saturation: Min = 0.3 Max = 0.3
DICPCG:  Solving for p, Initial residual = 0.0945455, Final residual = 1.01653e-14, No Iterations 1
time step continuity errors : sum local = 1.80735e-09, global = 1.17871e-10, cumulative = 1.8913e-09
Coats Number mean: 5.1512e-09 max: 1.01402e-08
deltaT = 864000
ExecutionTime = 0.54 s  ClockTime = 1 s

Time = 6.9984e+07

water saturation: Min = 0.3 Max = 0.3
DICPCG:  Solving for p, Initial residual = 0.0815331, Final residual = 3.72416e-15, No Iterations 1
time step continuity errors : sum local = 1.65019e-09, global = 0, cumulative = 1.8913e-09
Coats Number mean: 2.00775e-09 max: 5.07008e-09
deltaT = 864000
ExecutionTime = 0.54 s  ClockTime = 1 s

Time = 7.0848e+07

water saturation: Min = 0.3 Max = 0.3
DICPCG:  Solving for p, Initial residual = 0.490385, Final residual = 3.98613e-15, No Iterations 1
time step continuity errors : sum local = 1.53232e-09, global = 0, cumulative = 1.8913e-09
Coats Number mean: 1.91649e-09 max: 5.07008e-09
deltaT = 864000
ExecutionTime = 0.54 s  ClockTime = 1 s

Time = 7.1712e+07

water saturation: Min = 0.3 Max = 0.3
DICPCG:  Solving for p, Initial residual = 0.22905, Final residual = 1.0495e-14, No Iterations 1
time step continuity errors : sum local = 1.49303e-09, global = -1.17871e-10, cumulative = 1.77343e-09
Coats Number mean: 3.43751e-09 max: 8.11213e-09
deltaT = 864000
ExecutionTime = 0.55 s  ClockTime = 1 s

Time = 7.2576e+07

water saturation: Min = 0.3 Max = 0.3
DICPCG:  Solving for p, Initial residual = 0.0933893, Final residual = 4.75777e-15, No Iterations 1
time step continuity errors : sum local = 1.65019e-09, global = 1.96451e-10, cumulative = 1.96989e-09
Coats Number mean: 3.74172e-09 max: 1.31822e-08
deltaT = 864000
ExecutionTime = 0.56 s  ClockTime = 1 s

Time = 7.344e+07

water saturation: Min = 0.3 Max = 0.3
DICPCG:  Solving for p, Initial residual = 0.209581, Final residual = 1.45982e-14, No Iterations 1
time step continuity errors : sum local = 2.20025e-09, global = 2.35741e-10, cumulative = 2.20563e-09
Coats Number mean: 7.56456e-09 max: 1.67313e-08
deltaT = 864000
ExecutionTime = 0.56 s  ClockTime = 1 s

Time = 7.4304e+07

water saturation: Min = 0.3 Max = 0.3
DICPCG:  Solving for p, Initial residual = 0.0593103, Final residual = 4.83659e-15, No Iterations 1
time step continuity errors : sum local = 1.68948e-09, global = -1.17871e-10, cumulative = 2.08776e-09
Coats Number mean: 2.04831e-09 max: 8.61914e-09
deltaT = 864000
ExecutionTime = 0.56 s  ClockTime = 1 s

Time = 7.5168e+07

water saturation: Min = 0.3 Max = 0.3
DICPCG:  Solving for p, Initial residual = 0.154423, Final residual = 9.56723e-15, No Iterations 1
time step continuity errors : sum local = 2.0038e-09, global = -2.75031e-10, cumulative = 1.81272e-09
Coats Number mean: 6.81419e-09 max: 1.41962e-08
deltaT = 864000
ExecutionTime = 0.57 s  ClockTime = 1 s

Time = 7.6032e+07

water saturation: Min = 0.3 Max = 0.3
DICPCG:  Solving for p, Initial residual = 0.0555556, Final residual = 5.39035e-15, No Iterations 1
time step continuity errors : sum local = 1.53232e-09, global = 3.92902e-11, cumulative = 1.85201e-09
Coats Number mean: 1.56158e-09 max: 4.05606e-09
deltaT = 864000
ExecutionTime = 0.57 s  ClockTime = 1 s

Time = 7.6896e+07

water saturation: Min = 0.3 Max = 0.3
DICPCG:  Solving for p, Initial residual = 0.443983, Final residual = 1.8871e-14, No Iterations 1
time step continuity errors : sum local = 1.65019e-09, global = -2.75031e-10, cumulative = 1.57698e-09
Coats Number mean: 5.77989e-09 max: 1.31822e-08
deltaT = 864000
ExecutionTime = 0.58 s  ClockTime = 1 s

Time = 7.776e+07

water saturation: Min = 0.3 Max = 0.3
DICPCG:  Solving for p, Initial residual = 0.056713, Final residual = 4.9482e-15, No Iterations 1
time step continuity errors : sum local = 2.0038e-09, global = 3.92902e-11, cumulative = 1.61627e-09
Coats Number mean: 6.12466e-09 max: 1.21682e-08
deltaT = 864000
ExecutionTime = 0.58 s  ClockTime = 1 s

Time = 7.8624e+07

water saturation: Min = 0.3 Max = 0.3
DICPCG:  Solving for p, Initial residual = 0.0791789, Final residual = 4.88091e-15, No Iterations 1
time step continuity errors : sum local = 1.88593e-09, global = 0, cumulative = 1.61627e-09
Coats Number mean: 3.52878e-09 max: 7.09811e-09
deltaT = 864000
ExecutionTime = 0.59 s  ClockTime = 1 s

Time = 7.9488e+07

water saturation: Min = 0.3 Max = 0.3
DICPCG:  Solving for p, Initial residual = 0.127517, Final residual = 6.15118e-15, No Iterations 1
time step continuity errors : sum local = 1.72877e-09, global = 1.57161e-10, cumulative = 1.77343e-09
Coats Number mean: 3.30569e-09 max: 7.60512e-09
deltaT = 864000
ExecutionTime = 0.59 s  ClockTime = 1 s

Time = 8.0352e+07

water saturation: Min = 0.3 Max = 0.3
DICPCG:  Solving for p, Initial residual = 0.106816, Final residual = 3.99827e-15, No Iterations 1
time step continuity errors : sum local = 1.57161e-09, global = 0, cumulative = 1.77343e-09
Coats Number mean: 2.44378e-09 max: 7.09811e-09
deltaT = 864000
ExecutionTime = 0.59 s  ClockTime = 1 s

Time = 8.1216e+07

water saturation: Min = 0.3 Max = 0.3
DICPCG:  Solving for p, Initial residual = 0.211982, Final residual = 2.04675e-15, No Iterations 1
time step continuity errors : sum local = 1.53232e-09, global = -7.85803e-11, cumulative = 1.69485e-09
Coats Number mean: 2.87981e-09 max: 7.60512e-09
deltaT = 864000
ExecutionTime = 0.6 s  ClockTime = 1 s

Time = 8.208e+07

water saturation: Min = 0.3 Max = 0.3
DICPCG:  Solving for p, Initial residual = 0.248227, Final residual = 1.51612e-15, No Iterations 1
time step continuity errors : sum local = 1.57161e-09, global = 3.92902e-11, cumulative = 1.73414e-09
Coats Number mean: 2.3221e-09 max: 6.5911e-09
deltaT = 864000
ExecutionTime = 0.6 s  ClockTime = 1 s

Time = 8.2944e+07

water saturation: Min = 0.3 Max = 0.3
DICPCG:  Solving for p, Initial residual = 0.179211, Final residual = 2.77818e-15, No Iterations 1
time step continuity errors : sum local = 1.6109e-09, global = 7.85803e-11, cumulative = 1.81272e-09
Coats Number mean: 4.23859e-09 max: 9.12614e-09
deltaT = 864000
ExecutionTime = 0.61 s  ClockTime = 1 s

Time = 8.3808e+07

water saturation: Min = 0.3 Max = 0.3
DICPCG:  Solving for p, Initial residual = 0.510638, Final residual = 3.11264e-14, No Iterations 1
time step continuity errors : sum local = 1.68948e-09, global = 1.17871e-10, cumulative = 1.9306e-09
Coats Number mean: 5.11064e-09 max: 1.11542e-08
deltaT = 864000
ExecutionTime = 0.61 s  ClockTime = 1 s

Time = 8.4672e+07

water saturation: Min = 0.3 Max = 0.3
DICPCG:  Solving for p, Initial residual = 0.0700204, Final residual = 1.5319e-15, No Iterations 1
time step continuity errors : sum local = 1.88593e-09, global = 1.17871e-10, cumulative = 2.04847e-09
Coats Number mean: 3.26513e-09 max: 8.11213e-09
deltaT = 864000
ExecutionTime = 0.61 s  ClockTime = 1 s

Time = 8.5536e+07

water saturation: Min = 0.3 Max = 0.3
DICPCG:  Solving for p, Initial residual = 0.111111, Final residual = 3.7536e-15, No Iterations 1
time step continuity errors : sum local = 1.53232e-09, global = 3.92902e-11, cumulative = 2.08776e-09
Coats Number mean: 3.17387e-09 max: 7.09811e-09
deltaT = 864000
ExecutionTime = 0.62 s  ClockTime = 1 s

Time = 8.64e+07

water saturation: Min = 0.3 Max = 0.3
DICPCG:  Solving for p, Initial residual = 0.135521, Final residual = 5.28607e-15, No Iterations 1
time step continuity errors : sum local = 1.68948e-09, global = -3.92902e-11, cumulative = 2.04847e-09
Coats Number mean: 6.81419e-09 max: 1.41962e-08
deltaT = 864000
ExecutionTime = 0.62 s  ClockTime = 1 s

Time = 8.7264e+07

water saturation: Min = 0.3 Max = 0.3
DICPCG:  Solving for p, Initial residual = 0.0745033, Final residual = 1.06019e-15, No Iterations 1
time step continuity errors : sum local = 1.53232e-09, global = -3.92902e-11, cumulative = 2.00918e-09
Coats Number mean: 4.46167e-09 max: 9.12614e-09
deltaT = 864000
ExecutionTime = 0.62 s  ClockTime = 1 s

Time = 8.8128e+07

water saturation: Min = 0.3 Max = 0.3
DICPCG:  Solving for p, Initial residual = 0.0878438, Final residual = 4.66767e-15, No Iterations 1
time step continuity errors : sum local = 1.68948e-09, global = 0, cumulative = 2.00918e-09
Coats Number mean: 1.92663e-09 max: 5.07008e-09
deltaT = 864000
ExecutionTime = 0.63 s  ClockTime = 1 s

Time = 8.8992e+07

water saturation: Min = 0.3 Max = 0.3
DICPCG:  Solving for p, Initial residual = 0.427419, Final residual = 6.72088e-15, No Iterations 1
time step continuity errors : sum local = 1.41445e-09, global = -3.92902e-11, cumulative = 1.96989e-09
Coats Number mean: 1.32836e-09 max: 4.56307e-09
deltaT = 864000
ExecutionTime = 0.63 s  ClockTime = 1 s

Time = 8.9856e+07

water saturation: Min = 0.3 Max = 0.3
DICPCG:  Solving for p, Initial residual = 0.278788, Final residual = 1.36349e-14, No Iterations 1
time step continuity errors : sum local = 1.72877e-09, global = 0, cumulative = 1.96989e-09
Coats Number mean: 3.25499e-09 max: 7.60512e-09
deltaT = 864000
ExecutionTime = 0.63 s  ClockTime = 1 s

Time = 9.072e+07

water saturation: Min = 0.3 Max = 0.3
DICPCG:  Solving for p, Initial residual = 0.110615, Final residual = 2.54743e-15, No Iterations 1
time step continuity errors : sum local = 1.76806e-09, global = -1.17871e-10, cumulative = 1.85201e-09
Coats Number mean: 2.66686e-09 max: 7.09811e-09
deltaT = 864000
ExecutionTime = 0.64 s  ClockTime = 1 s

Time = 9.1584e+07

water saturation: Min = 0.3 Max = 0.3
DICPCG:  Solving for p, Initial residual = 0.19633, Final residual = 2.38545e-15, No Iterations 1
time step continuity errors : sum local = 1.76806e-09, global = -7.85803e-11, cumulative = 1.77343e-09
Coats Number mean: 3.08261e-09 max: 9.12614e-09
deltaT = 864000
ExecutionTime = 0.64 s  ClockTime = 1 s

Time = 9.2448e+07

water saturation: Min = 0.3 Max = 0.3
DICPCG:  Solving for p, Initial residual = 0.115339, Final residual = 1.08987e-14, No Iterations 1
time step continuity errors : sum local = 2.04309e-09, global = 1.17871e-10, cumulative = 1.8913e-09
Coats Number mean: 6.29704e-09 max: 1.11542e-08
deltaT = 864000
ExecutionTime = 0.65 s  ClockTime = 1 s

Time = 9.3312e+07

water saturation: Min = 0.3 Max = 0.3
DICPCG:  Solving for p, Initial residual = 0.0745342, Final residual = 1.3353e-15, No Iterations 1
time step continuity errors : sum local = 1.84664e-09, global = 3.92902e-11, cumulative = 1.9306e-09
Coats Number mean: 3.87354e-09 max: 9.12614e-09
deltaT = 864000
ExecutionTime = 0.65 s  ClockTime = 1 s

Time = 9.4176e+07

water saturation: Min = 0.3 Max = 0.3
DICPCG:  Solving for p, Initial residual = 0.101917, Final residual = 6.14062e-15, No Iterations 1
time step continuity errors : sum local = 2.04309e-09, global = -1.57161e-10, cumulative = 1.77343e-09
Coats Number mean: 3.15359e-09 max: 7.09811e-09
deltaT = 864000
ExecutionTime = 0.65 s  ClockTime = 1 s

Time = 9.504e+07

water saturation: Min = 0.3 Max = 0.3
DICPCG:  Solving for p, Initial residual = 0.105376, Final residual = 7.78589e-16, No Iterations 1
time step continuity errors : sum local = 1.41445e-09, global = -3.92902e-11, cumulative = 1.73414e-09
Coats Number mean: 2.81896e-09 max: 7.09811e-09
deltaT = 864000
ExecutionTime = 0.66 s  ClockTime = 1 s

Time = 9.5904e+07

water saturation: Min = 0.3 Max = 0.3
DICPCG:  Solving for p, Initial residual = 0.0958549, Final residual = 6.42434e-15, No Iterations 1
time step continuity errors : sum local = 1.65019e-09, global = 3.92902e-11, cumulative = 1.77343e-09
Coats Number mean: 3.78228e-09 max: 8.11213e-09
deltaT = 864000
ExecutionTime = 0.66 s  ClockTime = 1 s

Time = 9.6768e+07

water saturation: Min = 0.3 Max = 0.3
DICPCG:  Solving for p, Initial residual = 0.0814957, Final residual = 6.85549e-15, No Iterations 1
time step continuity errors : sum local = 1.76806e-09, global = -1.17871e-10, cumulative = 1.65556e-09
Coats Number mean: 6.53026e-09 max: 1.26752e-08
deltaT = 864000
ExecutionTime = 0.66 s  ClockTime = 1 s

Time = 9.7632e+07

water saturation: Min = 0.3 Max = 0.3
DICPCG:  Solving for p, Initial residual = 0.0616055, Final residual = 8.75688e-15, No Iterations 1
time step continuity errors : sum local = 1.68948e-09, global = 7.85803e-11, cumulative = 1.73414e-09
Coats Number mean: 4.02564e-09 max: 9.63315e-09
deltaT = 864000
ExecutionTime = 0.68 s  ClockTime = 1 s

Time = 9.8496e+07

water saturation: Min = 0.3 Max = 0.3
DICPCG:  Solving for p, Initial residual = 0.0818505, Final residual = 7.96773e-15, No Iterations 1
time step continuity errors : sum local = 1.80735e-09, global = -7.85803e-11, cumulative = 1.65556e-09
Coats Number mean: 3.22457e-09 max: 8.11213e-09
deltaT = 864000
ExecutionTime = 0.68 s  ClockTime = 1 s

Time = 9.936e+07

water saturation: Min = 0.3 Max = 0.3
DICPCG:  Solving for p, Initial residual = 0.135484, Final residual = 2.39006e-15, No Iterations 1
time step continuity errors : sum local = 1.92522e-09, global = -7.85803e-11, cumulative = 1.57698e-09
Coats Number mean: 2.29168e-09 max: 6.5911e-09
deltaT = 864000
ExecutionTime = 0.69 s  ClockTime = 1 s

Time = 1.00224e+08

water saturation: Min = 0.3 Max = 0.3
DICPCG:  Solving for p, Initial residual = 0.233684, Final residual = 8.06256e-15, No Iterations 1
time step continuity errors : sum local = 1.84664e-09, global = -1.17871e-10, cumulative = 1.45911e-09
Coats Number mean: 5.73933e-09 max: 9.63315e-09
deltaT = 864000
ExecutionTime = 0.69 s  ClockTime = 1 s

Time = 1.01088e+08

water saturation: Min = 0.3 Max = 0.3
DICPCG:  Solving for p, Initial residual = 0.0668449, Final residual = 1.01276e-14, No Iterations 1
time step continuity errors : sum local = 1.45374e-09, global = 3.92902e-10, cumulative = 1.85201e-09
Coats Number mean: 7.6254e-09 max: 2.02803e-08
deltaT = 864000
ExecutionTime = 0.69 s  ClockTime = 1 s

Time = 1.01952e+08

water saturation: Min = 0.3 Max = 0.3
DICPCG:  Solving for p, Initial residual = 0.0399298, Final residual = 1.37981e-15, No Iterations 1
time step continuity errors : sum local = 1.96451e-09, global = 7.85803e-11, cumulative = 1.9306e-09
Coats Number mean: 5.37428e-09 max: 8.61914e-09
deltaT = 864000
ExecutionTime = 0.7 s  ClockTime = 1 s

Time = 1.02816e+08

water saturation: Min = 0.3 Max = 0.3
DICPCG:  Solving for p, Initial residual = 0.0747729, Final residual = 1.17741e-14, No Iterations 1
time step continuity errors : sum local = 1.96451e-09, global = -4.71482e-10, cumulative = 1.45911e-09
Coats Number mean: 1.44903e-08 max: 2.48434e-08
deltaT = 864000
ExecutionTime = 0.7 s  ClockTime = 1 s

Time = 1.0368e+08

water saturation: Min = 0.3 Max = 0.3
DICPCG:  Solving for p, Initial residual = 0.0269, Final residual = 4.22099e-15, No Iterations 1
time step continuity errors : sum local = 1.57161e-09, global = -1.17871e-10, cumulative = 1.34124e-09
Coats Number mean: 2.50462e-09 max: 8.11213e-09
deltaT = 864000
ExecutionTime = 0.71 s  ClockTime = 1 s

Time = 1.04544e+08

water saturation: Min = 0.3 Max = 0.3
DICPCG:  Solving for p, Initial residual = 0.125495, Final residual = 4.86269e-15, No Iterations 1
time step continuity errors : sum local = 1.65019e-09, global = -3.92902e-11, cumulative = 1.30195e-09
Coats Number mean: 3.28541e-09 max: 8.11213e-09
deltaT = 864000
ExecutionTime = 0.71 s  ClockTime = 1 s

Time = 1.05408e+08

water saturation: Min = 0.3 Max = 0.3
DICPCG:  Solving for p, Initial residual = 0.306122, Final residual = 3.30439e-14, No Iterations 1
time step continuity errors : sum local = 1.88593e-09, global = -2.75031e-10, cumulative = 1.02692e-09
Coats Number mean: 1.1215e-08 max: 1.82523e-08
deltaT = 864000
ExecutionTime = 0.71 s  ClockTime = 1 s

Time = 1.06272e+08

water saturation: Min = 0.3 Max = 0.3
DICPCG:  Solving for p, Initial residual = 0.0362022, Final residual = 2.84381e-15, No Iterations 1
time step continuity errors : sum local = 1.76806e-09, global = -1.57161e-10, cumulative = 8.69761e-10
Coats Number mean: 4.847e-09 max: 8.11213e-09
deltaT = 864000
ExecutionTime = 0.72 s  ClockTime = 1 s

Time = 1.07136e+08

water saturation: Min = 0.3 Max = 0.3
DICPCG:  Solving for p, Initial residual = 0.0876331, Final residual = 9.3006e-15, No Iterations 1
time step continuity errors : sum local = 2.04309e-09, global = -3.92902e-10, cumulative = 4.76859e-10
Coats Number mean: 1.22392e-08 max: 1.92663e-08
deltaT = 864000
ExecutionTime = 0.72 s  ClockTime = 1 s

Time = 1.08e+08

water saturation: Min = 0.3 Max = 0.3
DICPCG:  Solving for p, Initial residual = 0.0322173, Final residual = 1.93009e-15, No Iterations 1
time step continuity errors : sum local = 2.04309e-09, global = -1.96451e-10, cumulative = 2.80408e-10
Coats Number mean: 5.60751e-09 max: 1.26752e-08
deltaT = 864000
ExecutionTime = 0.72 s  ClockTime = 1 s

Time = 1.08864e+08

water saturation: Min = 0.3 Max = 0.3
DICPCG:  Solving for p, Initial residual = 0.0695755, Final residual = 7.70414e-15, No Iterations 1
time step continuity errors : sum local = 1.65019e-09, global = 1.96451e-10, cumulative = 4.76859e-10
Coats Number mean: 7.3719e-09 max: 1.36892e-08
deltaT = 864000
ExecutionTime = 0.73 s  ClockTime = 1 s

Time = 1.09728e+08

water saturation: Min = 0.3 Max = 0.3
DICPCG:  Solving for p, Initial residual = 0.0401648, Final residual = 6.10737e-15, No Iterations 1
time step continuity errors : sum local = 1.72877e-09, global = -1.17871e-10, cumulative = 3.58988e-10
Coats Number mean: 3.7113e-09 max: 7.60512e-09
deltaT = 864000
ExecutionTime = 0.73 s  ClockTime = 1 s

Time = 1.10592e+08

water saturation: Min = 0.3 Max = 0.3
DICPCG:  Solving for p, Initial residual = 0.10224, Final residual = 1.41153e-14, No Iterations 1
time step continuity errors : sum local = 2.04309e-09, global = 4.32192e-10, cumulative = 7.9118e-10
Coats Number mean: 1.3527e-08 max: 2.23084e-08
deltaT = 864000
ExecutionTime = 0.74 s  ClockTime = 1 s

Time = 1.11456e+08

water saturation: Min = 0.3 Max = 0.3
DICPCG:  Solving for p, Initial residual = 0.0307054, Final residual = 1.70756e-15, No Iterations 1
time step continuity errors : sum local = 1.76806e-09, global = 2.75031e-10, cumulative = 1.06621e-09
Coats Number mean: 5.2526e-09 max: 1.41962e-08
deltaT = 864000
ExecutionTime = 0.74 s  ClockTime = 1 s

Time = 1.1232e+08

water saturation: Min = 0.3 Max = 0.3
DICPCG:  Solving for p, Initial residual = 0.0684597, Final residual = 8.3321e-16, No Iterations 1
time step continuity errors : sum local = 1.76806e-09, global = 1.57161e-10, cumulative = 1.22337e-09
Coats Number mean: 4.21831e-09 max: 1.01402e-08
deltaT = 864000
ExecutionTime = 0.75 s  ClockTime = 1 s

Time = 1.13184e+08

water saturation: Min = 0.3 Max = 0.3
DICPCG:  Solving for p, Initial residual = 0.0870279, Final residual = 2.66763e-15, No Iterations 1
time step continuity errors : sum local = 1.49303e-09, global = 7.85803e-11, cumulative = 1.30195e-09
Coats Number mean: 2.13957e-09 max: 5.57709e-09
deltaT = 864000
ExecutionTime = 0.75 s  ClockTime = 1 s

Time = 1.14048e+08

water saturation: Min = 0.3 Max = 0.3
DICPCG:  Solving for p, Initial residual = 0.15047, Final residual = 1.44468e-15, No Iterations 1
time step continuity errors : sum local = 1.45374e-09, global = 1.17871e-10, cumulative = 1.41982e-09
Coats Number mean: 2.95079e-09 max: 8.61914e-09
deltaT = 864000
ExecutionTime = 0.76 s  ClockTime = 1 s

Time = 1.14912e+08

water saturation: Min = 0.3 Max = 0.3
DICPCG:  Solving for p, Initial residual = 0.100446, Final residual = 4.37026e-15, No Iterations 1
time step continuity errors : sum local = 1.49303e-09, global = 1.17871e-10, cumulative = 1.53769e-09
Coats Number mean: 3.00149e-09 max: 5.57709e-09
deltaT = 864000
ExecutionTime = 0.76 s  ClockTime = 1 s

Time = 1.15776e+08

water saturation: Min = 0.3 Max = 0.3
DICPCG:  Solving for p, Initial residual = 0.15547, Final residual = 1.24294e-14, No Iterations 1
time step continuity errors : sum local = 1.57161e-09, global = -1.96451e-10, cumulative = 1.34124e-09
Coats Number mean: 4.48195e-09 max: 1.11542e-08
deltaT = 864000
ExecutionTime = 0.76 s  ClockTime = 1 s

Time = 1.1664e+08

water saturation: Min = 0.3 Max = 0.3
DICPCG:  Solving for p, Initial residual = 0.0770416, Final residual = 1.81314e-15, No Iterations 1
time step continuity errors : sum local = 1.53232e-09, global = -2.75031e-10, cumulative = 1.06621e-09
Coats Number mean: 7.88904e-09 max: 1.52102e-08
deltaT = 864000
ExecutionTime = 0.77 s  ClockTime = 1 s

Time = 1.17504e+08

water saturation: Min = 0.3 Max = 0.3
DICPCG:  Solving for p, Initial residual = 0.0541176, Final residual = 8.60572e-15, No Iterations 1
time step continuity errors : sum local = 1.96451e-09, global = 0, cumulative = 1.06621e-09
Coats Number mean: 4.7963e-09 max: 1.06472e-08
deltaT = 864000
ExecutionTime = 0.77 s  ClockTime = 1 s

Time = 1.18368e+08

water saturation: Min = 0.3 Max = 0.3
DICPCG:  Solving for p, Initial residual = 0.0966638, Final residual = 6.4619e-16, No Iterations 1
time step continuity errors : sum local = 1.84664e-09, global = 1.57161e-10, cumulative = 1.22337e-09
Coats Number mean: 5.74947e-09 max: 1.11542e-08
deltaT = 864000
ExecutionTime = 0.78 s  ClockTime = 1 s

Time = 1.19232e+08

water saturation: Min = 0.3 Max = 0.3
DICPCG:  Solving for p, Initial residual = 0.0766894, Final residual = 6.47993e-15, No Iterations 1
time step continuity errors : sum local = 1.92522e-09, global = 1.96451e-10, cumulative = 1.41982e-09
Coats Number mean: 2.91023e-09 max: 8.11213e-09
deltaT = 864000
ExecutionTime = 0.78 s  ClockTime = 1 s

Time = 1.20096e+08

water saturation: Min = 0.3 Max = 0.3
DICPCG:  Solving for p, Initial residual = 0.495726, Final residual = 4.53512e-14, No Iterations 1
time step continuity errors : sum local = 1.65019e-09, global = 2.35741e-10, cumulative = 1.65556e-09
Coats Number mean: 7.93974e-09 max: 1.67313e-08
deltaT = 864000
ExecutionTime = 0.78 s  ClockTime = 1 s

Time = 1.2096e+08

water saturation: Min = 0.3 Max = 0.3
DICPCG:  Solving for p, Initial residual = 0.039821, Final residual = 3.59186e-15, No Iterations 1
time step continuity errors : sum local = 1.72877e-09, global = -3.92902e-11, cumulative = 1.61627e-09
Coats Number mean: 2.85952e-09 max: 8.11213e-09
deltaT = 864000
ExecutionTime = 0.79 s  ClockTime = 1 s

Time = 1.21824e+08

water saturation: Min = 0.3 Max = 0.3
DICPCG:  Solving for p, Initial residual = 0.178082, Final residual = 1.58777e-14, No Iterations 1
time step continuity errors : sum local = 1.57161e-09, global = 2.75031e-10, cumulative = 1.8913e-09
Coats Number mean: 4.73545e-09 max: 1.36892e-08
deltaT = 864000
ExecutionTime = 0.79 s  ClockTime = 1 s

Time = 1.22688e+08

water saturation: Min = 0.3 Max = 0.3
DICPCG:  Solving for p, Initial residual = 0.0622135, Final residual = 4.5112e-15, No Iterations 1
time step continuity errors : sum local = 1.68948e-09, global = -1.17871e-10, cumulative = 1.77343e-09
Coats Number mean: 4.09662e-09 max: 1.06472e-08
deltaT = 864000
ExecutionTime = 0.8 s  ClockTime = 1 s

Time = 1.23552e+08

water saturation: Min = 0.3 Max = 0.3
DICPCG:  Solving for p, Initial residual = 0.0745543, Final residual = 1.18285e-14, No Iterations 1
time step continuity errors : sum local = 1.65019e-09, global = 3.14321e-10, cumulative = 2.08776e-09
Coats Number mean: 8.18311e-09 max: 1.67313e-08
deltaT = 864000
ExecutionTime = 0.8 s  ClockTime = 1 s

Time = 1.24416e+08

water saturation: Min = 0.3 Max = 0.3
DICPCG:  Solving for p, Initial residual = 0.0413517, Final residual = 4.99763e-15, No Iterations 1
time step continuity errors : sum local = 1.29658e-09, global = -3.92902e-11, cumulative = 2.04847e-09
Coats Number mean: 1.75425e-09 max: 5.57709e-09
deltaT = 864000
ExecutionTime = 0.8 s  ClockTime = 1 s

Time = 1.2528e+08

water saturation: Min = 0.3 Max = 0.3
DICPCG:  Solving for p, Initial residual = 0.255319, Final residual = 1.26093e-14, No Iterations 1
time step continuity errors : sum local = 1.6109e-09, global = -3.14321e-10, cumulative = 1.73414e-09
Coats Number mean: 6.66208e-09 max: 1.57172e-08
deltaT = 864000
ExecutionTime = 0.81 s  ClockTime = 1 s

Time = 1.26144e+08

water saturation: Min = 0.3 Max = 0.3
DICPCG:  Solving for p, Initial residual = 0.0501672, Final residual = 6.16817e-15, No Iterations 1
time step continuity errors : sum local = 1.68948e-09, global = 7.85803e-11, cumulative = 1.81272e-09
Coats Number mean: 2.64658e-09 max: 8.61914e-09
deltaT = 864000
ExecutionTime = 0.81 s  ClockTime = 1 s

Time = 1.27008e+08

water saturation: Min = 0.3 Max = 0.3
DICPCG:  Solving for p, Initial residual = 0.126659, Final residual = 1.98534e-15, No Iterations 1
time step continuity errors : sum local = 1.76806e-09, global = 7.85803e-11, cumulative = 1.8913e-09
Coats Number mean: 4.74559e-09 max: 9.12614e-09
deltaT = 864000
ExecutionTime = 0.81 s  ClockTime = 1 s

Time = 1.27872e+08

water saturation: Min = 0.3 Max = 0.3
DICPCG:  Solving for p, Initial residual = 0.0730159, Final residual = 1.05517e-14, No Iterations 1
time step continuity errors : sum local = 1.57161e-09, global = -1.57161e-10, cumulative = 1.73414e-09
Coats Number mean: 1.26752e-08 max: 1.92663e-08
deltaT = 864000
ExecutionTime = 0.82 s  ClockTime = 1 s

Time = 1.28736e+08

water saturation: Min = 0.3 Max = 0.3
DICPCG:  Solving for p, Initial residual = 0.0346685, Final residual = 8.8643e-15, No Iterations 1
time step continuity errors : sum local = 1.68948e-09, global = 5.10772e-10, cumulative = 2.24492e-09
Coats Number mean: 1.14584e-08 max: 2.88995e-08
deltaT = 864000
ExecutionTime = 0.82 s  ClockTime = 1 s

Time = 1.296e+08

water saturation: Min = 0.3 Max = 0.3
DICPCG:  Solving for p, Initial residual = 0.0270578, Final residual = 5.93689e-15, No Iterations 1
time step continuity errors : sum local = 1.6109e-09, global = -1.57161e-10, cumulative = 2.08776e-09
Coats Number mean: 8.36563e-09 max: 1.57172e-08
deltaT = 864000
ExecutionTime = 0.82 s  ClockTime = 1 s

Time = 1.30464e+08

water saturation: Min = 0.3 Max = 0.3
DICPCG:  Solving for p, Initial residual = 0.0461812, Final residual = 4.13652e-15, No Iterations 1
time step continuity errors : sum local = 1.80735e-09, global = 1.17871e-10, cumulative = 2.20563e-09
Coats Number mean: 2.59588e-09 max: 8.61914e-09
deltaT = 864000
ExecutionTime = 0.83 s  ClockTime = 1 s

Time = 1.31328e+08

water saturation: Min = 0.3 Max = 0.3
DICPCG:  Solving for p, Initial residual = 0.185185, Final residual = 4.51865e-15, No Iterations 1
time step continuity errors : sum local = 1.57161e-09, global = -3.92902e-11, cumulative = 2.16634e-09
Coats Number mean: 1.76439e-09 max: 5.07008e-09
deltaT = 864000
ExecutionTime = 0.83 s  ClockTime = 1 s

Time = 1.32192e+08

water saturation: Min = 0.3 Max = 0.3
DICPCG:  Solving for p, Initial residual = 0.315615, Final residual = 7.0774e-15, No Iterations 1
time step continuity errors : sum local = 1.49303e-09, global = 7.85803e-11, cumulative = 2.24492e-09
Coats Number mean: 2.26126e-09 max: 5.07008e-09
deltaT = 864000
ExecutionTime = 0.83 s  ClockTime = 1 s

Time = 1.33056e+08

water saturation: Min = 0.3 Max = 0.3
DICPCG:  Solving for p, Initial residual = 0.176252, Final residual = 7.5386e-15, No Iterations 1
time step continuity errors : sum local = 1.68948e-09, global = 2.35741e-10, cumulative = 2.48066e-09
Coats Number mean: 3.93438e-09 max: 1.26752e-08
deltaT = 864000
ExecutionTime = 0.84 s  ClockTime = 1 s

Time = 1.3392e+08

water saturation: Min = 0.3 Max = 0.3
DICPCG:  Solving for p, Initial residual = 0.0834671, Final residual = 6.26822e-15, No Iterations 1
time step continuity errors : sum local = 1.53232e-09, global = 0, cumulative = 2.48066e-09
Coats Number mean: 1.50074e-09 max: 4.05606e-09
deltaT = 864000
ExecutionTime = 0.84 s  ClockTime = 1 s

Time = 1.34784e+08

water saturation: Min = 0.3 Max = 0.3
DICPCG:  Solving for p, Initial residual = 0.335937, Final residual = 2.42428e-14, No Iterations 1
time step continuity errors : sum local = 1.72877e-09, global = -1.17871e-10, cumulative = 2.36279e-09
Coats Number mean: 6.89531e-09 max: 1.26752e-08
deltaT = 864000
ExecutionTime = 0.84 s  ClockTime = 1 s

Time = 1.35648e+08

water saturation: Min = 0.3 Max = 0.3
DICPCG:  Solving for p, Initial residual = 0.0604982, Final residual = 2.13603e-15, No Iterations 1
time step continuity errors : sum local = 1.80735e-09, global = -3.92902e-11, cumulative = 2.3235e-09
Coats Number mean: 3.88368e-09 max: 8.61914e-09
deltaT = 864000
ExecutionTime = 0.85 s  ClockTime = 1 s

Time = 1.36512e+08

water saturation: Min = 0.3 Max = 0.3
DICPCG:  Solving for p, Initial residual = 0.0996094, Final residual = 9.50108e-15, No Iterations 1
time step continuity errors : sum local = 2.27883e-09, global = 1.57161e-10, cumulative = 2.48066e-09
Coats Number mean: 5.17148e-09 max: 9.63315e-09
deltaT = 864000
ExecutionTime = 0.85 s  ClockTime = 1 s

Time = 1.37376e+08

water saturation: Min = 0.3 Max = 0.3
DICPCG:  Solving for p, Initial residual = 0.089541, Final residual = 8.98136e-15, No Iterations 1
time step continuity errors : sum local = 2.0038e-09, global = -3.14321e-10, cumulative = 2.16634e-09
Coats Number mean: 4.50223e-09 max: 1.72383e-08
deltaT = 864000
ExecutionTime = 0.86 s  ClockTime = 1 s

Time = 1.3824e+08

water saturation: Min = 0.3 Max = 0.3
DICPCG:  Solving for p, Initial residual = 0.0718232, Final residual = 5.94107e-15, No Iterations 1
time step continuity errors : sum local = 1.84664e-09, global = 3.92902e-11, cumulative = 2.20563e-09
Coats Number mean: 3.57948e-09 max: 1.06472e-08
deltaT = 864000
ExecutionTime = 0.86 s  ClockTime = 1 s

Time = 1.39104e+08

water saturation: Min = 0.3 Max = 0.3
DICPCG:  Solving for p, Initial residual = 0.0944444, Final residual = 3.1555e-15, No Iterations 1
time step continuity errors : sum local = 1.49303e-09, global = 7.85803e-11, cumulative = 2.28421e-09
Coats Number mean: 2.31196e-09 max: 5.57709e-09
deltaT = 864000
ExecutionTime = 0.86 s  ClockTime = 1 s

Time = 1.39968e+08

water saturation: Min = 0.3 Max = 0.3
DICPCG:  Solving for p, Initial residual = 0.262599, Final residual = 2.69743e-14, No Iterations 1
time step continuity errors : sum local = 1.65019e-09, global = 7.85803e-11, cumulative = 2.36279e-09
Coats Number mean: 5.23232e-09 max: 1.06472e-08
deltaT = 864000
ExecutionTime = 0.87 s  ClockTime = 1 s

Time = 1.40832e+08

water saturation: Min = 0.3 Max = 0.3
DICPCG:  Solving for p, Initial residual = 0.0668486, Final residual = 3.67858e-15, No Iterations 1
time step continuity errors : sum local = 1.72877e-09, global = 3.92902e-11, cumulative = 2.40208e-09
Coats Number mean: 2.18013e-09 max: 5.07008e-09
deltaT = 864000
ExecutionTime = 0.87 s  ClockTime = 1 s

Time = 1.41696e+08

water saturation: Min = 0.3 Max = 0.3
DICPCG:  Solving for p, Initial residual = 0.420849, Final residual = 1.32652e-14, No Iterations 1
time step continuity errors : sum local = 1.49303e-09, global = -7.85803e-11, cumulative = 2.3235e-09
Coats Number mean: 3.51864e-09 max: 8.61914e-09
deltaT = 864000
ExecutionTime = 0.88 s  ClockTime = 1 s

Time = 1.4256e+08

water saturation: Min = 0.3 Max = 0.3
DICPCG:  Solving for p, Initial residual = 0.0994975, Final residual = 6.38127e-15, No Iterations 1
time step continuity errors : sum local = 1.65019e-09, global = 2.35741e-10, cumulative = 2.55924e-09
Coats Number mean: 3.12317e-09 max: 1.16612e-08
deltaT = 864000
ExecutionTime = 0.88 s  ClockTime = 1 s

Time = 1.43424e+08

water saturation: Min = 0.3 Max = 0.3
DICPCG:  Solving for p, Initial residual = 0.124105, Final residual = 8.73741e-16, No Iterations 1
time step continuity errors : sum local = 1.45374e-09, global = 7.85803e-11, cumulative = 2.63782e-09
Coats Number mean: 1.94691e-09 max: 8.11213e-09
deltaT = 864000
ExecutionTime = 0.88 s  ClockTime = 1 s

Time = 1.44288e+08

water saturation: Min = 0.3 Max = 0.3
DICPCG:  Solving for p, Initial residual = 0.153846, Final residual = 4.02994e-15, No Iterations 1
time step continuity errors : sum local = 1.6109e-09, global = 7.85803e-11, cumulative = 2.7164e-09
Coats Number mean: 3.25499e-09 max: 6.5911e-09
deltaT = 864000
ExecutionTime = 0.89 s  ClockTime = 1 s

Time = 1.45152e+08

water saturation: Min = 0.3 Max = 0.3
DICPCG:  Solving for p, Initial residual = 0.107027, Final residual = 6.80705e-15, No Iterations 1
time step continuity errors : sum local = 1.41445e-09, global = 0, cumulative = 2.7164e-09
Coats Number mean: 1.61229e-09 max: 4.05606e-09
deltaT = 864000
ExecutionTime = 0.89 s  ClockTime = 1 s

Time = 1.46016e+08

water saturation: Min = 0.3 Max = 0.3
DICPCG:  Solving for p, Initial residual = 0.285714, Final residual = 6.26038e-15, No Iterations 1
time step continuity errors : sum local = 1.45374e-09, global = 3.92902e-11, cumulative = 2.75569e-09
Coats Number mean: 1.52102e-09 max: 6.0841e-09
[...]
ExecutionTime = 1.42 s  ClockTime = 2 s

Time = 2.55744e+08

water saturation: Min = 0.3 Max = 0.3
DICPCG:  Solving for p, Initial residual = 0.0490463, Final residual = 2.82396e-15, No Iterations 1
time step continuity errors : sum local = 1.72877e-09, global = -1.57161e-10, cumulative = 5.30955e-09
Coats Number mean: 2.58574e-09 max: 7.60512e-09
deltaT = 864000
ExecutionTime = 1.43 s  ClockTime = 2 s

Time = 2.56608e+08

water saturation: Min = 0.3 Max = 0.3
DICPCG:  Solving for p, Initial residual = 0.181159, Final residual = 6.31138e-15, No Iterations 1
time step continuity errors : sum local = 1.68948e-09, global = -7.85803e-11, cumulative = 5.23097e-09
Coats Number mean: 2.53504e-09 max: 7.60512e-09
deltaT = 864000
ExecutionTime = 1.43 s  ClockTime = 2 s

Time = 2.57472e+08

water saturation: Min = 0.3 Max = 0.3
DICPCG:  Solving for p, Initial residual = 0.224806, Final residual = 7.0492e-15, No Iterations 1
time step continuity errors : sum local = 1.76806e-09, global = 0, cumulative = 5.23097e-09
Coats Number mean: 2.66686e-09 max: 7.60512e-09
deltaT = 864000
ExecutionTime = 1.43 s  ClockTime = 2 s

Time = 2.58336e+08

water saturation: Min = 0.3 Max = 0.3
DICPCG:  Solving for p, Initial residual = 0.166667, Final residual = 1.74008e-14, No Iterations 1
time step continuity errors : sum local = 1.45374e-09, global = 2.35741e-10, cumulative = 5.46671e-09
Coats Number mean: 1.15091e-08 max: 1.72383e-08
deltaT = 864000
ExecutionTime = 1.44 s  ClockTime = 2 s

Time = 2.592e+08

water saturation: Min = 0.3 Max = 0.3
DICPCG:  Solving for p, Initial residual = 0.029916, Final residual = 4.36111e-15, No Iterations 1
time step continuity errors : sum local = 1.72877e-09, global = -1.17871e-10, cumulative = 5.34884e-09
Coats Number mean: 2.75812e-09 max: 7.09811e-09
deltaT = 864000
ExecutionTime = 1.44 s  ClockTime = 2 s

Time = 2.60064e+08

water saturation: Min = 0.3 Max = 0.3
DICPCG:  Solving for p, Initial residual = 0.155556, Final residual = 8.80853e-15, No Iterations 1
time step continuity errors : sum local = 1.88593e-09, global = -1.17871e-10, cumulative = 5.23097e-09
Coats Number mean: 6.16522e-09 max: 1.62243e-08
deltaT = 864000
ExecutionTime = 1.45 s  ClockTime = 2 s

Time = 2.60928e+08

water saturation: Min = 0.3 Max = 0.3
DICPCG:  Solving for p, Initial residual = 0.0529994, Final residual = 7.21069e-15, No Iterations 1
time step continuity errors : sum local = 1.80735e-09, global = 1.17871e-10, cumulative = 5.34884e-09
Coats Number mean: 2.90009e-09 max: 7.09811e-09
deltaT = 864000
ExecutionTime = 1.45 s  ClockTime = 2 s

Time = 2.61792e+08

water saturation: Min = 0.3 Max = 0.3
DICPCG:  Solving for p, Initial residual = 0.186004, Final residual = 2.32094e-14, No Iterations 1
time step continuity errors : sum local = 1.84664e-09, global = -7.85803e-11, cumulative = 5.27026e-09
Coats Number mean: 7.50372e-09 max: 1.21682e-08
deltaT = 864000
ExecutionTime = 1.46 s  ClockTime = 2 s

Time = 2.62656e+08

water saturation: Min = 0.3 Max = 0.3
DICPCG:  Solving for p, Initial residual = 0.0536004, Final residual = 4.05349e-15, No Iterations 1
time step continuity errors : sum local = 1.65019e-09, global = -1.17871e-10, cumulative = 5.15239e-09
Coats Number mean: 1.63257e-09 max: 6.0841e-09
deltaT = 864000
ExecutionTime = 1.46 s  ClockTime = 2 s

Time = 2.6352e+08

water saturation: Min = 0.3 Max = 0.3
DICPCG:  Solving for p, Initial residual = 0.421053, Final residual = 1.91426e-14, No Iterations 1
time step continuity errors : sum local = 1.65019e-09, global = -3.92902e-10, cumulative = 4.75949e-09
Coats Number mean: 6.55054e-09 max: 1.92663e-08
deltaT = 864000
ExecutionTime = 1.46 s  ClockTime = 2 s

Time = 2.64384e+08

water saturation: Min = 0.3 Max = 0.3
DICPCG:  Solving for p, Initial residual = 0.0599657, Final residual = 4.72514e-15, No Iterations 1
time step continuity errors : sum local = 1.6109e-09, global = 3.92902e-11, cumulative = 4.79878e-09
Coats Number mean: 2.96093e-09 max: 9.12614e-09
deltaT = 864000
ExecutionTime = 1.47 s  ClockTime = 2 s

Time = 2.65248e+08

water saturation: Min = 0.3 Max = 0.3
DICPCG:  Solving for p, Initial residual = 0.128988, Final residual = 5.50708e-15, No Iterations 1
time step continuity errors : sum local = 1.65019e-09, global = 2.35741e-10, cumulative = 5.03452e-09
Coats Number mean: 5.46555e-09 max: 1.41962e-08
deltaT = 864000
ExecutionTime = 1.47 s  ClockTime = 2 s

Time = 2.66112e+08

water saturation: Min = 0.3 Max = 0.3
DICPCG:  Solving for p, Initial residual = 0.0562972, Final residual = 4.53909e-15, No Iterations 1
time step continuity errors : sum local = 1.76806e-09, global = -7.85803e-11, cumulative = 4.95594e-09
Coats Number mean: 2.99135e-09 max: 7.60512e-09
deltaT = 864000
ExecutionTime = 1.47 s  ClockTime = 2 s

Time = 2.66976e+08

water saturation: Min = 0.3 Max = 0.3
DICPCG:  Solving for p, Initial residual = 0.111617, Final residual = 1.2526e-14, No Iterations 1
time step continuity errors : sum local = 1.88593e-09, global = 1.96451e-10, cumulative = 5.15239e-09
Coats Number mean: 8.12227e-09 max: 1.41962e-08
deltaT = 864000
ExecutionTime = 1.47 s  ClockTime = 2 s

Time = 2.6784e+08

water saturation: Min = 0.3 Max = 0.3
DICPCG:  Solving for p, Initial residual = 0.0435185, Final residual = 3.58643e-15, No Iterations 1
time step continuity errors : sum local = 1.92522e-09, global = -3.92902e-11, cumulative = 5.1131e-09
Coats Number mean: 1.95705e-09 max: 6.0841e-09
deltaT = 864000
ExecutionTime = 1.48 s  ClockTime = 2 s

Time = 2.68704e+08

water saturation: Min = 0.3 Max = 0.3
DICPCG:  Solving for p, Initial residual = 0.168375, Final residual = 2.55546e-15, No Iterations 1
time step continuity errors : sum local = 1.80735e-09, global = 0, cumulative = 5.1131e-09
Coats Number mean: 3.67074e-09 max: 1.06472e-08
deltaT = 864000
ExecutionTime = 1.48 s  ClockTime = 2 s

Time = 2.69568e+08

water saturation: Min = 0.3 Max = 0.3
DICPCG:  Solving for p, Initial residual = 0.112462, Final residual = 7.93489e-15, No Iterations 1
time step continuity errors : sum local = 1.57161e-09, global = 1.17871e-10, cumulative = 5.23097e-09
Coats Number mean: 4.43125e-09 max: 1.01402e-08
deltaT = 864000
ExecutionTime = 1.49 s  ClockTime = 2 s

Time = 2.70432e+08

water saturation: Min = 0.3 Max = 0.3
DICPCG:  Solving for p, Initial residual = 0.0762852, Final residual = 8.45279e-15, No Iterations 1
time step continuity errors : sum local = 2.04309e-09, global = 2.75031e-10, cumulative = 5.506e-09
Coats Number mean: 1.0708e-08 max: 1.62243e-08
deltaT = 864000
ExecutionTime = 1.49 s  ClockTime = 2 s

Time = 2.71296e+08

water saturation: Min = 0.3 Max = 0.3
DICPCG:  Solving for p, Initial residual = 0.0420233, Final residual = 7.52701e-15, No Iterations 1
time step continuity errors : sum local = 1.76806e-09, global = -2.35741e-10, cumulative = 5.27026e-09
Coats Number mean: 6.40858e-09 max: 1.36892e-08
deltaT = 864000
ExecutionTime = 1.49 s  ClockTime = 2 s

Time = 2.7216e+08

water saturation: Min = 0.3 Max = 0.3
DICPCG:  Solving for p, Initial residual = 0.0587595, Final residual = 4.99951e-15, No Iterations 1
time step continuity errors : sum local = 1.57161e-09, global = 7.85803e-11, cumulative = 5.34884e-09
Coats Number mean: 2.95079e-09 max: 7.09811e-09
deltaT = 864000
ExecutionTime = 1.5 s  ClockTime = 2 s

Time = 2.73024e+08

water saturation: Min = 0.3 Max = 0.3
DICPCG:  Solving for p, Initial residual = 0.15508, Final residual = 1.04313e-14, No Iterations 1
time step continuity errors : sum local = 1.80735e-09, global = 2.75031e-10, cumulative = 5.62387e-09
Coats Number mean: 5.96241e-09 max: 1.36892e-08
deltaT = 864000
ExecutionTime = 1.5 s  ClockTime = 2 s

Time = 2.73888e+08

water saturation: Min = 0.3 Max = 0.3
DICPCG:  Solving for p, Initial residual = 0.0631068, Final residual = 1.67584e-15, No Iterations 1
time step continuity errors : sum local = 1.80735e-09, global = 7.85803e-11, cumulative = 5.70245e-09
Coats Number mean: 3.9648e-09 max: 9.12614e-09
deltaT = 864000
ExecutionTime = 1.5 s  ClockTime = 2 s

Time = 2.74752e+08

water saturation: Min = 0.3 Max = 0.3
DICPCG:  Solving for p, Initial residual = 0.107991, Final residual = 1.94205e-15, No Iterations 1
time step continuity errors : sum local = 1.65019e-09, global = 1.17871e-10, cumulative = 5.82032e-09
Coats Number mean: 2.3728e-09 max: 9.12614e-09
deltaT = 864000
ExecutionTime = 1.51 s  ClockTime = 2 s

Time = 2.75616e+08

water saturation: Min = 0.3 Max = 0.3
DICPCG:  Solving for p, Initial residual = 0.165109, Final residual = 4.5763e-15, No Iterations 1
time step continuity errors : sum local = 1.72877e-09, global = 3.92902e-11, cumulative = 5.85961e-09
Coats Number mean: 2.69728e-09 max: 6.0841e-09
deltaT = 864000
ExecutionTime = 1.51 s  ClockTime = 2 s

Time = 2.7648e+08

water saturation: Min = 0.3 Max = 0.3
DICPCG:  Solving for p, Initial residual = 0.276382, Final residual = 1.2709e-14, No Iterations 1
time step continuity errors : sum local = 1.96451e-09, global = -7.85803e-11, cumulative = 5.78103e-09
Coats Number mean: 5.56695e-09 max: 1.06472e-08
deltaT = 864000
ExecutionTime = 1.52 s  ClockTime = 2 s

Time = 2.77344e+08

water saturation: Min = 0.3 Max = 0.3
DICPCG:  Solving for p, Initial residual = 0.069797, Final residual = 3.38829e-15, No Iterations 1
time step continuity errors : sum local = 1.80735e-09, global = -3.92902e-11, cumulative = 5.74174e-09
Coats Number mean: 2.7277e-09 max: 8.61914e-09
deltaT = 864000
ExecutionTime = 1.52 s  ClockTime = 2 s

Time = 2.78208e+08

water saturation: Min = 0.3 Max = 0.3
DICPCG:  Solving for p, Initial residual = 0.145946, Final residual = 1.02576e-14, No Iterations 1
time step continuity errors : sum local = 1.53232e-09, global = -3.92902e-10, cumulative = 5.34884e-09
Coats Number mean: 8.47717e-09 max: 2.33224e-08
deltaT = 864000
ExecutionTime = 1.52 s  ClockTime = 2 s

Time = 2.79072e+08

water saturation: Min = 0.3 Max = 0.3
DICPCG:  Solving for p, Initial residual = 0.0452418, Final residual = 2.69329e-15, No Iterations 1
time step continuity errors : sum local = 1.84664e-09, global = -7.85803e-11, cumulative = 5.27026e-09
Coats Number mean: 5.73933e-09 max: 1.31822e-08
deltaT = 864000
ExecutionTime = 1.53 s  ClockTime = 2 s

Time = 2.79936e+08

water saturation: Min = 0.3 Max = 0.3
DICPCG:  Solving for p, Initial residual = 0.0739247, Final residual = 7.30688e-15, No Iterations 1
time step continuity errors : sum local = 1.76806e-09, global = -3.92902e-11, cumulative = 5.23097e-09
Coats Number mean: 2.46406e-09 max: 8.11213e-09
deltaT = 864000
ExecutionTime = 1.53 s  ClockTime = 2 s

Time = 2.808e+08

water saturation: Min = 0.3 Max = 0.3
DICPCG:  Solving for p, Initial residual = 0.154423, Final residual = 3.72183e-15, No Iterations 1
time step continuity errors : sum local = 1.57161e-09, global = 1.57161e-10, cumulative = 5.38813e-09
Coats Number mean: 2.2714e-09 max: 7.09811e-09
deltaT = 864000
ExecutionTime = 1.54 s  ClockTime = 2 s

Time = 2.81664e+08

water saturation: Min = 0.3 Max = 0.3
DICPCG:  Solving for p, Initial residual = 0.196787, Final residual = 4.43465e-15, No Iterations 1
time step continuity errors : sum local = 1.29658e-09, global = 0, cumulative = 5.38813e-09
Coats Number mean: 1.71369e-09 max: 4.56307e-09
deltaT = 864000
ExecutionTime = 1.54 s  ClockTime = 2 s

Time = 2.82528e+08

water saturation: Min = 0.3 Max = 0.3
DICPCG:  Solving for p, Initial residual = 0.335548, Final residual = 1.20162e-14, No Iterations 1
time step continuity errors : sum local = 2.16096e-09, global = 1.96451e-10, cumulative = 5.58458e-09
Coats Number mean: 3.74172e-09 max: 8.61914e-09
deltaT = 864000
ExecutionTime = 1.54 s  ClockTime = 2 s

Time = 2.83392e+08

water saturation: Min = 0.3 Max = 0.3
DICPCG:  Solving for p, Initial residual = 0.166667, Final residual = 5.54709e-15, No Iterations 1
time step continuity errors : sum local = 1.76806e-09, global = 0, cumulative = 5.58458e-09
Coats Number mean: 3.762e-09 max: 7.60512e-09
deltaT = 864000
ExecutionTime = 1.55 s  ClockTime = 2 s

Time = 2.84256e+08

water saturation: Min = 0.3 Max = 0.3
DICPCG:  Solving for p, Initial residual = 0.128019, Final residual = 6.4401e-15, No Iterations 1
time step continuity errors : sum local = 1.72877e-09, global = -3.92902e-11, cumulative = 5.54529e-09
Coats Number mean: 5.33372e-09 max: 9.12614e-09
deltaT = 864000
ExecutionTime = 1.55 s  ClockTime = 2 s

Time = 2.8512e+08

water saturation: Min = 0.3 Max = 0.3
DICPCG:  Solving for p, Initial residual = 0.0813008, Final residual = 3.69533e-15, No Iterations 1
time step continuity errors : sum local = 1.72877e-09, global = -3.92902e-11, cumulative = 5.506e-09
Coats Number mean: 1.90635e-09 max: 6.0841e-09
deltaT = 864000
ExecutionTime = 1.56 s  ClockTime = 2 s

Time = 2.85984e+08

water saturation: Min = 0.3 Max = 0.3
DICPCG:  Solving for p, Initial residual = 0.328, Final residual = 2.81049e-14, No Iterations 1
time step continuity errors : sum local = 1.92522e-09, global = 4.71482e-10, cumulative = 5.97748e-09
Coats Number mean: 1.06472e-08 max: 2.48434e-08
deltaT = 864000
ExecutionTime = 1.57 s  ClockTime = 2 s

Time = 2.86848e+08

water saturation: Min = 0.3 Max = 0.3
DICPCG:  Solving for p, Initial residual = 0.0341686, Final residual = 4.74842e-15, No Iterations 1
time step continuity errors : sum local = 1.72877e-09, global = -1.96451e-10, cumulative = 5.78103e-09
Coats Number mean: 5.86101e-09 max: 1.21682e-08
deltaT = 864000
ExecutionTime = 1.57 s  ClockTime = 2 s

Time = 2.87712e+08

water saturation: Min = 0.3 Max = 0.3
DICPCG:  Solving for p, Initial residual = 0.0675932, Final residual = 4.91766e-15, No Iterations 1
time step continuity errors : sum local = 1.84664e-09, global = 3.92902e-11, cumulative = 5.82032e-09
Coats Number mean: 2.56546e-09 max: 7.60512e-09
deltaT = 864000
ExecutionTime = 1.58 s  ClockTime = 2 s

Time = 2.88576e+08

water saturation: Min = 0.3 Max = 0.3
DICPCG:  Solving for p, Initial residual = 0.297806, Final residual = 9.31787e-15, No Iterations 1
time step continuity errors : sum local = 1.53232e-09, global = 7.85803e-11, cumulative = 5.8989e-09
Coats Number mean: 2.65672e-09 max: 6.0841e-09
deltaT = 864000
ExecutionTime = 1.58 s  ClockTime = 2 s

Time = 2.8944e+08

water saturation: Min = 0.3 Max = 0.3
DICPCG:  Solving for p, Initial residual = 0.126138, Final residual = 3.15222e-15, No Iterations 1
time step continuity errors : sum local = 1.41445e-09, global = 7.85803e-11, cumulative = 5.97748e-09
Coats Number mean: 1.98747e-09 max: 6.0841e-09
deltaT = 864000
ExecutionTime = 1.58 s  ClockTime = 2 s

Time = 2.90304e+08

water saturation: Min = 0.3 Max = 0.3
DICPCG:  Solving for p, Initial residual = 0.209195, Final residual = 7.99361e-15, No Iterations 1
time step continuity errors : sum local = 1.76806e-09, global = -1.57161e-10, cumulative = 5.82032e-09
Coats Number mean: 3.26513e-09 max: 7.09811e-09
deltaT = 864000
ExecutionTime = 1.59 s  ClockTime = 2 s

Time = 2.91168e+08

water saturation: Min = 0.3 Max = 0.3
DICPCG:  Solving for p, Initial residual = 0.148615, Final residual = 6.42811e-15, No Iterations 1
time step continuity errors : sum local = 1.76806e-09, global = 0, cumulative = 5.82032e-09
Coats Number mean: 2.74798e-09 max: 7.60512e-09
deltaT = 864000
ExecutionTime = 1.59 s  ClockTime = 2 s

Time = 2.92032e+08

water saturation: Min = 0.3 Max = 0.3
DICPCG:  Solving for p, Initial residual = 0.213849, Final residual = 6.01013e-15, No Iterations 1
time step continuity errors : sum local = 1.41445e-09, global = -3.92902e-11, cumulative = 5.78103e-09
Coats Number mean: 2.3221e-09 max: 5.57709e-09
deltaT = 864000
ExecutionTime = 1.59 s  ClockTime = 2 s

Time = 2.92896e+08

water saturation: Min = 0.3 Max = 0.3
DICPCG:  Solving for p, Initial residual = 0.263158, Final residual = 3.00111e-14, No Iterations 1
time step continuity errors : sum local = 2.20025e-09, global = -1.57161e-10, cumulative = 5.62387e-09
Coats Number mean: 6.93587e-09 max: 1.21682e-08
deltaT = 864000
ExecutionTime = 1.6 s  ClockTime = 2 s

Time = 2.9376e+08

water saturation: Min = 0.3 Max = 0.3
DICPCG:  Solving for p, Initial residual = 0.0663589, Final residual = 2.56062e-15, No Iterations 1
time step continuity errors : sum local = 1.49303e-09, global = -7.85803e-11, cumulative = 5.54529e-09
Coats Number mean: 3.57948e-09 max: 8.11213e-09
deltaT = 864000
ExecutionTime = 1.61 s  ClockTime = 2 s

Time = 2.94624e+08

water saturation: Min = 0.3 Max = 0.3
DICPCG:  Solving for p, Initial residual = 0.080543, Final residual = 4.24176e-15, No Iterations 1
time step continuity errors : sum local = 1.68948e-09, global = 3.92902e-11, cumulative = 5.58458e-09
Coats Number mean: 2.30182e-09 max: 5.57709e-09
deltaT = 864000
ExecutionTime = 1.61 s  ClockTime = 2 s

Time = 2.95488e+08

water saturation: Min = 0.3 Max = 0.3
DICPCG:  Solving for p, Initial residual = 0.189066, Final residual = 1.68885e-15, No Iterations 1
time step continuity errors : sum local = 1.37516e-09, global = 0, cumulative = 5.58458e-09
Coats Number mean: 2.15985e-09 max: 6.5911e-09
deltaT = 864000
ExecutionTime = 1.61 s  ClockTime = 2 s

Time = 2.96352e+08

water saturation: Min = 0.3 Max = 0.3
DICPCG:  Solving for p, Initial residual = 0.183044, Final residual = 4.66722e-15, No Iterations 1
time step continuity errors : sum local = 1.72877e-09, global = 1.57161e-10, cumulative = 5.74174e-09
Coats Number mean: 4.13719e-09 max: 8.11213e-09
deltaT = 864000
ExecutionTime = 1.62 s  ClockTime = 2 s

Time = 2.97216e+08

water saturation: Min = 0.3 Max = 0.3
DICPCG:  Solving for p, Initial residual = 0.343558, Final residual = 3.85874e-14, No Iterations 1
time step continuity errors : sum local = 2.0038e-09, global = 7.85803e-11, cumulative = 5.82032e-09
Coats Number mean: 5.90157e-09 max: 9.12614e-09
deltaT = 864000
ExecutionTime = 1.62 s  ClockTime = 2 s

Time = 2.9808e+08

water saturation: Min = 0.3 Max = 0.3
DICPCG:  Solving for p, Initial residual = 0.0759837, Final residual = 5.4062e-15, No Iterations 1
time step continuity errors : sum local = 2.16096e-09, global = -7.85803e-11, cumulative = 5.74174e-09
Coats Number mean: 2.56546e-09 max: 6.5911e-09
deltaT = 864000
ExecutionTime = 1.62 s  ClockTime = 2 s

Time = 2.98944e+08

water saturation: Min = 0.3 Max = 0.3
DICPCG:  Solving for p, Initial residual = 0.234899, Final residual = 2.40052e-15, No Iterations 1
time step continuity errors : sum local = 1.49303e-09, global = -7.85803e-11, cumulative = 5.66316e-09
Coats Number mean: 1.79481e-09 max: 4.56307e-09
deltaT = 864000
ExecutionTime = 1.63 s  ClockTime = 2 s

Time = 2.99808e+08

water saturation: Min = 0.3 Max = 0.3
DICPCG:  Solving for p, Initial residual = 0.289037, Final residual = 2.17242e-14, No Iterations 1
time step continuity errors : sum local = 1.88593e-09, global = -7.85803e-11, cumulative = 5.58458e-09
Coats Number mean: 8.21353e-09 max: 1.31822e-08
deltaT = 864000
ExecutionTime = 1.63 s  ClockTime = 2 s

Time = 3.00672e+08

water saturation: Min = 0.3 Max = 0.3
DICPCG:  Solving for p, Initial residual = 0.0542636, Final residual = 1.12179e-15, No Iterations 1
time step continuity errors : sum local = 1.92522e-09, global = -2.75031e-10, cumulative = 5.30955e-09
Coats Number mean: 6.60124e-09 max: 1.57172e-08
deltaT = 864000
ExecutionTime = 1.64 s  ClockTime = 2 s

Time = 3.01536e+08

water saturation: Min = 0.3 Max = 0.3
DICPCG:  Solving for p, Initial residual = 0.0584307, Final residual = 5.26235e-15, No Iterations 1
time step continuity errors : sum local = 1.76806e-09, global = 2.35741e-10, cumulative = 5.54529e-09
Coats Number mean: 3.04205e-09 max: 1.16612e-08
deltaT = 864000
ExecutionTime = 1.64 s  ClockTime = 2 s

Time = 3.024e+08

water saturation: Min = 0.3 Max = 0.3
DICPCG:  Solving for p, Initial residual = 0.134663, Final residual = 8.74335e-15, No Iterations 1
time step continuity errors : sum local = 1.80735e-09, global = 3.14321e-10, cumulative = 5.85961e-09
Coats Number mean: 1.06674e-08 max: 1.77453e-08
deltaT = 864000
ExecutionTime = 1.64 s  ClockTime = 2 s

End

