/*---------------------------------------------------------------------------*\
| =========                 |                                                 |
| \\      /  F ield         | foam-extend: Open Source CFD                    |
|  \\    /   O peration     | Version:     4.0                                |
|   \\  /    A nd           | Web:         http://www.foam-extend.org         |
|    \\/     M anipulation  | For copyright notice see file Copyright         |
\*---------------------------------------------------------------------------*/
Build    : 4.0-268bb07d15d8
Exec     : twoPhaseImpesFoam
Date     : Mar 14 2020
Time     : 10:45:02
Host     : Elwardi-PC
PID      : 20559
CtrlDict : "/home/elwardi/GitRepos/OpenRSR.tutorials/isotropic/twoPhase/twoPhaseImpesFoam/BL-Case1A/system/controlDict"
Case     : /home/elwardi/GitRepos/OpenRSR.tutorials/isotropic/twoPhase/twoPhaseImpesFoam/BL-Case1A
nProcs   : 1
SigFpe   : Enabling floating point exception trapping (FOAM_SIGFPE).

// * * * * * * * * * * * * * * * * * * * * * * * * * * * * * * * * * * * * * //
Create time

Create mesh for time = 0


Reading g
Reading field p

Reading transportProperties

Reading field porosity

Reading field K


    From function magLongDelta::makeMagLongDistance()
    in file interpolation/surfaceInterpolation/schemes/harmonic/magLongDelta.C at line 75
    Constructing magnitude of long cell distance
Reading field U


{
    solver          diagonal;
    relTol          0;
}

Reading/calculating face flux field phi

Selecting wellModel : peaceman

Reading Wells

Constructing cells for well: INJ0
    Adding cells mentioned in dictionary ...
	Reading imposed drives for well: INJ0
..... cell 0 .... kr water: 0.00625
..... cell 0 .... kr oil: 0.420139

Starting time loop

Time = 0

diagonal:  Solving for water.alpha, Initial residual = 0, Final residual = 0, No Iterations 0
water saturation: Min = 0.25 Max = 0.250001
DICPCG:  Solving for p, Initial residual = 1, Final residual = 5.91854e-13, No Iterations 1
time step continuity errors : sum local = 1.00002e-09, global = 9.99996e-10, cumulative = 9.99996e-10
Coats Number mean: 1.93594e-08 max: 1.94567e-08
deltaT = 119.999
..... cell 0 .... kr water: 0.00625013
..... cell 0 .... kr oil: 0.420138
ExecutionTime = 0.02 s  ClockTime = 0 s

Time = 100

diagonal:  Solving for water.alpha, Initial residual = 0, Final residual = 0, No Iterations 0
water saturation: Min = 0.25 Max = 0.250001
DICPCG:  Solving for p, Initial residual = 1.53659e-07, Final residual = 1.57785e-20, No Iterations 1
time step continuity errors : sum local = 1.20001e-09, global = 1.19999e-09, cumulative = 2.19998e-09
Coats Number mean: 2.32311e-08 max: 2.33478e-08
deltaT = 143.996
..... cell 0 .... kr water: 0.00625027
..... cell 0 .... kr oil: 0.420137
ExecutionTime = 0.02 s  ClockTime = 0 s

Time = 219.999

diagonal:  Solving for water.alpha, Initial residual = 0, Final residual = 0, No Iterations 0
water saturation: Min = 0.25 Max = 0.250002
DICPCG:  Solving for p, Initial residual = 1.56472e-07, Final residual = 6.26089e-22, No Iterations 1
time step continuity errors : sum local = 1.44e-09, global = 1.43996e-09, cumulative = 3.63995e-09
Coats Number mean: 2.78769e-08 max: 2.8017e-08
deltaT = 172.793
..... cell 0 .... kr water: 0.00625045
..... cell 0 .... kr oil: 0.420136
ExecutionTime = 0.03 s  ClockTime = 0 s

Time = 363.995

diagonal:  Solving for water.alpha, Initial residual = 0, Final residual = 0, No Iterations 0
water saturation: Min = 0.25 Max = 0.250003
DICPCG:  Solving for p, Initial residual = 1.69136e-07, Final residual = 3.32165e-21, No Iterations 1
time step continuity errors : sum local = 1.72797e-09, global = 1.72793e-09, cumulative = 5.36788e-09
Coats Number mean: 3.34517e-08 max: 3.36199e-08
deltaT = 207.35
..... cell 0 .... kr water: 0.00625067
..... cell 0 .... kr oil: 0.420135
ExecutionTime = 0.03 s  ClockTime = 0 s

Time = 536.788

diagonal:  Solving for water.alpha, Initial residual = 0, Final residual = 0, No Iterations 0
water saturation: Min = 0.25 Max = 0.250004
DICPCG:  Solving for p, Initial residual = 1.621e-07, Final residual = 1.71293e-20, No Iterations 1
time step continuity errors : sum local = 2.07355e-09, global = 2.0735e-09, cumulative = 7.44138e-09
Coats Number mean: 4.01418e-08 max: 4.03436e-08
deltaT = 248.819
..... cell 0 .... kr water: 0.00625093
..... cell 0 .... kr oil: 0.420133
ExecutionTime = 0.03 s  ClockTime = 0 s

Time = 744.138

diagonal:  Solving for water.alpha, Initial residual = 0, Final residual = 0, No Iterations 0
water saturation: Min = 0.25 Max = 0.250005
DICPCG:  Solving for p, Initial residual = 1.87427e-07, Final residual = 1.72438e-20, No Iterations 1
time step continuity errors : sum local = 2.48824e-09, global = 2.4882e-09, cumulative = 9.92958e-09
Coats Number mean: 4.81701e-08 max: 4.84122e-08
deltaT = 298.576
..... cell 0 .... kr water: 0.00625124
..... cell 0 .... kr oil: 0.420131
ExecutionTime = 0.04 s  ClockTime = 0 s

Time = 992.957

diagonal:  Solving for water.alpha, Initial residual = 0, Final residual = 0, No Iterations 0
water saturation: Min = 0.25 Max = 0.250006
DICPCG:  Solving for p, Initial residual = 1.88834e-07, Final residual = 5.60387e-21, No Iterations 1
time step continuity errors : sum local = 2.98583e-09, global = 2.98578e-09, cumulative = 1.29154e-08
Coats Number mean: 5.78029e-08 max: 5.80934e-08
deltaT = 358.289
..... cell 0 .... kr water: 0.00625161
..... cell 0 .... kr oil: 0.420129
ExecutionTime = 0.04 s  ClockTime = 0 s

Time = 1291.53

diagonal:  Solving for water.alpha, Initial residual = 0, Final residual = 0, No Iterations 0
water saturation: Min = 0.25 Max = 0.250008
DICPCG:  Solving for p, Initial residual = 2.07124e-07, Final residual = 1.87961e-20, No Iterations 1
time step continuity errors : sum local = 3.58297e-09, global = 3.58289e-09, cumulative = 1.64982e-08
Coats Number mean: 6.93628e-08 max: 6.97114e-08
deltaT = 429.94
..... cell 0 .... kr water: 0.00625206
..... cell 0 .... kr oil: 0.420126
ExecutionTime = 0.04 s  ClockTime = 0 s

Time = 1649.82

diagonal:  Solving for water.alpha, Initial residual = 0, Final residual = 0, No Iterations 0
water saturation: Min = 0.25 Max = 0.25001
DICPCG:  Solving for p, Initial residual = 2.31044e-07, Final residual = 6.18966e-21, No Iterations 1
time step continuity errors : sum local = 4.29949e-09, global = 4.29939e-09, cumulative = 2.07976e-08
Coats Number mean: 8.32339e-08 max: 8.36522e-08
deltaT = 515.912
..... cell 0 .... kr water: 0.0062526
..... cell 0 .... kr oil: 0.420123
ExecutionTime = 0.04 s  ClockTime = 0 s

Time = 2079.76

diagonal:  Solving for water.alpha, Initial residual = 0, Final residual = 0, No Iterations 0
water saturation: Min = 0.25 Max = 0.250013
DICPCG:  Solving for p, Initial residual = 2.53557e-07, Final residual = 4.59852e-21, No Iterations 1
time step continuity errors : sum local = 5.15925e-09, global = 5.15913e-09, cumulative = 2.59568e-08
Coats Number mean: 9.98778e-08 max: 1.0038e-07
deltaT = 619.08
..... cell 0 .... kr water: 0.00625324
..... cell 0 .... kr oil: 0.420119
ExecutionTime = 0.05 s  ClockTime = 0 s

Time = 2595.67

diagonal:  Solving for water.alpha, Initial residual = 0, Final residual = 0, No Iterations 0
water saturation: Min = 0.25 Max = 0.250016
DICPCG:  Solving for p, Initial residual = 2.78883e-07, Final residual = 1.07004e-20, No Iterations 1
time step continuity errors : sum local = 6.19094e-09, global = 6.19079e-09, cumulative = 3.21476e-08
Coats Number mean: 1.1985e-07 max: 1.20453e-07
deltaT = 742.885
..... cell 0 .... kr water: 0.00625402
..... cell 0 .... kr oil: 0.420114
ExecutionTime = 0.05 s  ClockTime = 0 s

Time = 3214.75

diagonal:  Solving for water.alpha, Initial residual = 0, Final residual = 0, No Iterations 0
water saturation: Min = 0.25 Max = 0.25002
DICPCG:  Solving for p, Initial residual = 2.85919e-07, Final residual = 2.44591e-20, No Iterations 1
time step continuity errors : sum local = 7.42901e-09, global = 7.42885e-09, cumulative = 3.95764e-08
Coats Number mean: 1.43819e-07 max: 1.44542e-07
deltaT = 891.416
..... cell 0 .... kr water: 0.00625495
..... cell 0 .... kr oil: 0.420109
ExecutionTime = 0.05 s  ClockTime = 0 s

Time = 3957.64

diagonal:  Solving for water.alpha, Initial residual = 0, Final residual = 0, No Iterations 0
water saturation: Min = 0.25 Max = 0.250024
DICPCG:  Solving for p, Initial residual = 3.14058e-07, Final residual = 2.86083e-21, No Iterations 1
time step continuity errors : sum local = 8.91437e-09, global = 8.91419e-09, cumulative = 4.84906e-08
Coats Number mean: 1.72574e-07 max: 1.73441e-07
deltaT = 1069.63
..... cell 0 .... kr water: 0.00625606
..... cell 0 .... kr oil: 0.420102
ExecutionTime = 0.05 s  ClockTime = 0 s

Time = 4849.06

diagonal:  Solving for water.alpha, Initial residual = 0, Final residual = 0, No Iterations 0
water saturation: Min = 0.25 Max = 0.25003
DICPCG:  Solving for p, Initial residual = 3.33756e-07, Final residual = 3.88306e-21, No Iterations 1
time step continuity errors : sum local = 1.06966e-08, global = 1.06963e-08, cumulative = 5.91869e-08
Coats Number mean: 2.07076e-07 max: 2.08116e-07
deltaT = 1283.5
..... cell 0 .... kr water: 0.0062574
..... cell 0 .... kr oil: 0.420094
ExecutionTime = 0.06 s  ClockTime = 0 s

Time = 5918.69

diagonal:  Solving for water.alpha, Initial residual = 0, Final residual = 0, No Iterations 0
water saturation: Min = 0.25 Max = 0.250036
DICPCG:  Solving for p, Initial residual = 3.54861e-07, Final residual = 7.11707e-21, No Iterations 1
time step continuity errors : sum local = 1.28352e-08, global = 1.2835e-08, cumulative = 7.20219e-08
Coats Number mean: 2.48479e-07 max: 2.49727e-07
deltaT = 1539.92
..... cell 0 .... kr water: 0.006259
..... cell 0 .... kr oil: 0.420084
ExecutionTime = 0.06 s  ClockTime = 0 s

Time = 7202.19

diagonal:  Solving for water.alpha, Initial residual = 0, Final residual = 0, No Iterations 0
water saturation: Min = 0.25 Max = 0.250044
DICPCG:  Solving for p, Initial residual = 4.26619e-07, Final residual = 7.6496e-22, No Iterations 1
time step continuity errors : sum local = 1.53996e-08, global = 1.53992e-08, cumulative = 8.74211e-08
Coats Number mean: 2.98122e-07 max: 2.99618e-07
deltaT = 1847.84
..... cell 0 .... kr water: 0.00626093
..... cell 0 .... kr oil: 0.420072
ExecutionTime = 0.06 s  ClockTime = 0 s

Time = 8742.11

diagonal:  Solving for water.alpha, Initial residual = 0, Final residual = 0, No Iterations 0
water saturation: Min = 0.25 Max = 0.250053
DICPCG:  Solving for p, Initial residual = 4.88528e-07, Final residual = 3.73592e-21, No Iterations 1
time step continuity errors : sum local = 1.84788e-08, global = 1.84784e-08, cumulative = 1.059e-07
Coats Number mean: 3.57734e-07 max: 3.5953e-07
deltaT = 2217.22
..... cell 0 .... kr water: 0.00626324
..... cell 0 .... kr oil: 0.420058
ExecutionTime = 0.07 s  ClockTime = 0 s

Time = 10589.9

diagonal:  Solving for water.alpha, Initial residual = 0, Final residual = 0, No Iterations 0
water saturation: Min = 0.25 Max = 0.250064
DICPCG:  Solving for p, Initial residual = 5.37773e-07, Final residual = 7.18159e-21, No Iterations 1
time step continuity errors : sum local = 2.21726e-08, global = 2.21722e-08, cumulative = 1.28072e-07
Coats Number mean: 4.29244e-07 max: 4.31398e-07
deltaT = 2660.25
..... cell 0 .... kr water: 0.00626601
..... cell 0 .... kr oil: 0.420041
ExecutionTime = 0.07 s  ClockTime = 0 s

Time = 12807.2

diagonal:  Solving for water.alpha, Initial residual = 0, Final residual = 0, No Iterations 0
water saturation: Min = 0.25 Max = 0.250077
DICPCG:  Solving for p, Initial residual = 6.10939e-07, Final residual = 7.51371e-22, No Iterations 1
time step continuity errors : sum local = 2.66031e-08, global = 2.66025e-08, cumulative = 1.54674e-07
Coats Number mean: 5.15014e-07 max: 5.17598e-07
deltaT = 3191.91
..... cell 0 .... kr water: 0.00626934
..... cell 0 .... kr oil: 0.420021
ExecutionTime = 0.07 s  ClockTime = 0 s

Time = 15467.4

diagonal:  Solving for water.alpha, Initial residual = 0, Final residual = 0, No Iterations 0
water saturation: Min = 0.25 Max = 0.250093
DICPCG:  Solving for p, Initial residual = 7.05209e-07, Final residual = 1.47712e-21, No Iterations 1
time step continuity errors : sum local = 3.19198e-08, global = 3.1919e-08, cumulative = 1.86593e-07
Coats Number mean: 6.17942e-07 max: 6.2104e-07
deltaT = 3830
..... cell 0 .... kr water: 0.00627334
..... cell 0 .... kr oil: 0.419996
ExecutionTime = 0.08 s  ClockTime = 0 s

Time = 18659.3

diagonal:  Solving for water.alpha, Initial residual = 0, Final residual = 0, No Iterations 0
water saturation: Min = 0.25 Max = 0.250112
DICPCG:  Solving for p, Initial residual = 8.27619e-07, Final residual = 4.036e-21, No Iterations 1
time step continuity errors : sum local = 3.83009e-08, global = 3.83001e-08, cumulative = 2.24893e-07
Coats Number mean: 7.41478e-07 max: 7.45194e-07
deltaT = 4593.56
..... cell 0 .... kr water: 0.00627813
..... cell 0 .... kr oil: 0.419967
ExecutionTime = 0.08 s  ClockTime = 0 s

Time = 22489.3

diagonal:  Solving for water.alpha, Initial residual = 0, Final residual = 0, No Iterations 0
water saturation: Min = 0.25 Max = 0.250135
DICPCG:  Solving for p, Initial residual = 9.73948e-07, Final residual = 7.10443e-21, No Iterations 1
time step continuity errors : sum local = 4.59367e-08, global = 4.59358e-08, cumulative = 2.70829e-07
Coats Number mean: 8.89303e-07 max: 8.93759e-07
deltaT = 5510.5
..... cell 0 .... kr water: 0.00628388
..... cell 0 .... kr oil: 0.419932
ExecutionTime = 0.08 s  ClockTime = 0 s

Time = 27082.9

diagonal:  Solving for water.alpha, Initial residual = 0, Final residual = 0, No Iterations 0
water saturation: Min = 0.25 Max = 0.250163
DICPCG:  Solving for p, Initial residual = 1.13294e-06, Final residual = 9.65516e-21, No Iterations 1
time step continuity errors : sum local = 5.51064e-08, global = 5.51054e-08, cumulative = 3.25935e-07
Coats Number mean: 1.06683e-06 max: 1.07217e-06
deltaT = 6610.91
..... cell 0 .... kr water: 0.00629079
..... cell 0 .... kr oil: 0.41989
ExecutionTime = 0.09 s  ClockTime = 0 s

Time = 32593.4

diagonal:  Solving for water.alpha, Initial residual = 0, Final residual = 0, No Iterations 0
water saturation: Min = 0.25 Max = 0.250196
DICPCG:  Solving for p, Initial residual = 1.33132e-06, Final residual = 3.74327e-20, No Iterations 1
time step continuity errors : sum local = 6.61107e-08, global = 6.6109e-08, cumulative = 3.92044e-07
Coats Number mean: 1.27987e-06 max: 1.28627e-06
deltaT = 7927
..... cell 0 .... kr water: 0.00629908
..... cell 0 .... kr oil: 0.41984
ExecutionTime = 0.09 s  ClockTime = 0 s

Time = 39204.3

diagonal:  Solving for water.alpha, Initial residual = 0, Final residual = 0, No Iterations 0
water saturation: Min = 0.25 Max = 0.250236
DICPCG:  Solving for p, Initial residual = 1.58741e-06, Final residual = 6.60207e-21, No Iterations 1
time step continuity errors : sum local = 7.9272e-08, global = 7.92703e-08, cumulative = 4.71314e-07
Coats Number mean: 1.53467e-06 max: 1.54234e-06
deltaT = 9505.39
..... cell 0 .... kr water: 0.00630903
..... cell 0 .... kr oil: 0.419779
ExecutionTime = 0.09 s  ClockTime = 0 s

Time = 47131.3

diagonal:  Solving for water.alpha, Initial residual = 0, Final residual = 0, No Iterations 0
water saturation: Min = 0.25 Max = 0.250283
DICPCG:  Solving for p, Initial residual = 1.85755e-06, Final residual = 5.66073e-21, No Iterations 1
time step continuity errors : sum local = 9.50561e-08, global = 9.50538e-08, cumulative = 5.66368e-07
Coats Number mean: 1.84025e-06 max: 1.84944e-06
deltaT = 11398.9
..... cell 0 .... kr water: 0.00632096
..... cell 0 .... kr oil: 0.419707
ExecutionTime = 0.1 s  ClockTime = 0 s

Time = 56636.7

diagonal:  Solving for water.alpha, Initial residual = 0, Final residual = 0, No Iterations 0
water saturation: Min = 0.25 Max = 0.25034
DICPCG:  Solving for p, Initial residual = 2.19946e-06, Final residual = 1.12169e-21, No Iterations 1
time step continuity errors : sum local = 1.13992e-07, global = 1.13989e-07, cumulative = 6.80356e-07
Coats Number mean: 2.20686e-06 max: 2.21785e-06
deltaT = 13671.4
..... cell 0 .... kr water: 0.0063353
..... cell 0 .... kr oil: 0.41962
ExecutionTime = 0.1 s  ClockTime = 0 s

Time = 68035.6

diagonal:  Solving for water.alpha, Initial residual = 0, Final residual = 0, No Iterations 0
water saturation: Min = 0.25 Max = 0.250408
DICPCG:  Solving for p, Initial residual = 2.61171e-06, Final residual = 3.28666e-21, No Iterations 1
time step continuity errors : sum local = 1.36717e-07, global = 1.36714e-07, cumulative = 8.17071e-07
Coats Number mean: 2.64684e-06 max: 2.66001e-06
deltaT = 16395.2
..... cell 0 .... kr water: 0.0063525
..... cell 0 .... kr oil: 0.419515
ExecutionTime = 0.1 s  ClockTime = 0 s

Time = 81707

diagonal:  Solving for water.alpha, Initial residual = 0, Final residual = 0, No Iterations 0
water saturation: Min = 0.25 Max = 0.25049
DICPCG:  Solving for p, Initial residual = 3.07321e-06, Final residual = 6.9265e-21, No Iterations 1
time step continuity errors : sum local = 1.63956e-07, global = 1.63952e-07, cumulative = 9.81023e-07
Coats Number mean: 3.17421e-06 max: 3.18997e-06
deltaT = 19636.5
..... cell 0 .... kr water: 0.00637317
..... cell 0 .... kr oil: 0.41939
ExecutionTime = 0.1 s  ClockTime = 0 s

Time = 98102.2

diagonal:  Solving for water.alpha, Initial residual = 0, Final residual = 0, No Iterations 0
water saturation: Min = 0.25 Max = 0.250588
DICPCG:  Solving for p, Initial residual = 3.6726e-06, Final residual = 1.12109e-20, No Iterations 1
time step continuity errors : sum local = 1.9637e-07, global = 1.96366e-07, cumulative = 1.17739e-06
Coats Number mean: 3.80182e-06 max: 3.82064e-06
deltaT = 23542.2
..... cell 0 .... kr water: 0.00639797
..... cell 0 .... kr oil: 0.41924
ExecutionTime = 0.11 s  ClockTime = 0 s

Time = 117739

diagonal:  Solving for water.alpha, Initial residual = 0, Final residual = 0, No Iterations 0
water saturation: Min = 0.25 Max = 0.250706
DICPCG:  Solving for p, Initial residual = 4.38595e-06, Final residual = 1.50244e-20, No Iterations 1
time step continuity errors : sum local = 2.35427e-07, global = 2.35421e-07, cumulative = 1.41281e-06
Coats Number mean: 4.55803e-06 max: 4.58053e-06
deltaT = 28234.9
..... cell 0 .... kr water: 0.00642777
..... cell 0 .... kr oil: 0.419061
ExecutionTime = 0.11 s  ClockTime = 0 s

Time = 141281

diagonal:  Solving for water.alpha, Initial residual = 0, Final residual = 0, No Iterations 0
water saturation: Min = 0.25 Max = 0.250847
DICPCG:  Solving for p, Initial residual = 5.21752e-06, Final residual = 6.07096e-21, No Iterations 1
time step continuity errors : sum local = 2.82357e-07, global = 2.82349e-07, cumulative = 1.69516e-06
Coats Number mean: 5.46672e-06 max: 5.4936e-06
deltaT = 33746.9
..... cell 0 .... kr water: 0.00646359
..... cell 0 .... kr oil: 0.418846
ExecutionTime = 0.11 s  ClockTime = 0 s

Time = 169516

diagonal:  Solving for water.alpha, Initial residual = 0, Final residual = 0, No Iterations 0
water saturation: Min = 0.25 Max = 0.251016
DICPCG:  Solving for p, Initial residual = 6.18975e-06, Final residual = 9.91621e-21, No Iterations 1
time step continuity errors : sum local = 3.37478e-07, global = 3.37471e-07, cumulative = 2.03263e-06
Coats Number mean: 6.53408e-06 max: 6.56608e-06
deltaT = 40367.2
..... cell 0 .... kr water: 0.00650654
..... cell 0 .... kr oil: 0.418588
ExecutionTime = 0.11 s  ClockTime = 0 s

Time = 203263

diagonal:  Solving for water.alpha, Initial residual = 0, Final residual = 0, No Iterations 0
water saturation: Min = 0.25 Max = 0.251218
DICPCG:  Solving for p, Initial residual = 7.39554e-06, Final residual = 1.12821e-20, No Iterations 1
time step continuity errors : sum local = 4.03681e-07, global = 4.03671e-07, cumulative = 2.4363e-06
Coats Number mean: 7.81607e-06 max: 7.85413e-06
deltaT = 48255
..... cell 0 .... kr water: 0.0065581
..... cell 0 .... kr oil: 0.418281
ExecutionTime = 0.12 s  ClockTime = 0 s

Time = 243630

diagonal:  Solving for water.alpha, Initial residual = 0, Final residual = 0, No Iterations 0
water saturation: Min = 0.25 Max = 0.251459
DICPCG:  Solving for p, Initial residual = 8.80118e-06, Final residual = 4.10926e-21, No Iterations 1
time step continuity errors : sum local = 4.82561e-07, global = 4.8255e-07, cumulative = 2.91885e-06
Coats Number mean: 9.34364e-06 max: 9.38885e-06
deltaT = 57573.2
..... cell 0 .... kr water: 0.00662001
..... cell 0 .... kr oil: 0.417913
ExecutionTime = 0.12 s  ClockTime = 0 s

Time = 291885

diagonal:  Solving for water.alpha, Initial residual = 0, Final residual = 0, No Iterations 0
water saturation: Min = 0.25 Max = 0.251746
DICPCG:  Solving for p, Initial residual = 1.04811e-05, Final residual = 5.57498e-21, No Iterations 1
time step continuity errors : sum local = 5.75746e-07, global = 5.75733e-07, cumulative = 3.49458e-06
Coats Number mean: 1.11484e-05 max: 1.12019e-05
deltaT = 59644.2
..... cell 0 .... kr water: 0.00669425
..... cell 0 .... kr oil: 0.417475
ExecutionTime = 0.12 s  ClockTime = 0 s

Time = 349458

diagonal:  Solving for water.alpha, Initial residual = 0, Final residual = 0, No Iterations 0
water saturation: Min = 0.25 Max = 0.252045
DICPCG:  Solving for p, Initial residual = 1.08793e-05, Final residual = 4.58272e-21, No Iterations 1
time step continuity errors : sum local = 5.96457e-07, global = 5.96442e-07, cumulative = 4.09102e-06
Coats Number mean: 1.15498e-05 max: 1.16048e-05
deltaT = 59644.2
..... cell 0 .... kr water: 0.00677159
..... cell 0 .... kr oil: 0.417021
ExecutionTime = 0.13 s  ClockTime = 0 s

Time = 409102

diagonal:  Solving for water.alpha, Initial residual = 0, Final residual = 0, No Iterations 0
water saturation: Min = 0.25 Max = 0.252343
DICPCG:  Solving for p, Initial residual = 1.08653e-05, Final residual = 4.42824e-21, No Iterations 1
time step continuity errors : sum local = 5.96455e-07, global = 5.96442e-07, cumulative = 4.68747e-06
Coats Number mean: 1.15503e-05 max: 1.16048e-05
deltaT = 59644.2
..... cell 0 .... kr water: 0.00684938
..... cell 0 .... kr oil: 0.416567
ExecutionTime = 0.13 s  ClockTime = 0 s

Time = 468747

diagonal:  Solving for water.alpha, Initial residual = 0, Final residual = 0, No Iterations 0
water saturation: Min = 0.25 Max = 0.252641
DICPCG:  Solving for p, Initial residual = 1.0861e-05, Final residual = 4.60225e-21, No Iterations 1
time step continuity errors : sum local = 5.96456e-07, global = 5.96443e-07, cumulative = 5.28391e-06
Coats Number mean: 1.15507e-05 max: 1.16048e-05
deltaT = 59644.2
..... cell 0 .... kr water: 0.00692761
..... cell 0 .... kr oil: 0.416114
ExecutionTime = 0.13 s  ClockTime = 0 s

Time = 528391

diagonal:  Solving for water.alpha, Initial residual = 0, Final residual = 0, No Iterations 0
water saturation: Min = 0.25 Max = 0.252939
DICPCG:  Solving for p, Initial residual = 1.08723e-05, Final residual = 2.1466e-21, No Iterations 1
time step continuity errors : sum local = 5.96456e-07, global = 5.96442e-07, cumulative = 5.88035e-06
Coats Number mean: 1.15512e-05 max: 1.16048e-05
deltaT = 59644.2
..... cell 0 .... kr water: 0.00700629
..... cell 0 .... kr oil: 0.415661
ExecutionTime = 0.13 s  ClockTime = 0 s

Time = 588035

diagonal:  Solving for water.alpha, Initial residual = 0, Final residual = 0, No Iterations 0
water saturation: Min = 0.25 Max = 0.253237
DICPCG:  Solving for p, Initial residual = 1.08667e-05, Final residual = 2.27941e-21, No Iterations 1
time step continuity errors : sum local = 5.96454e-07, global = 5.96441e-07, cumulative = 6.47679e-06
Coats Number mean: 1.15516e-05 max: 1.16048e-05
deltaT = 59644.2
..... cell 0 .... kr water: 0.00708541
..... cell 0 .... kr oil: 0.415208
ExecutionTime = 0.14 s  ClockTime = 0 s

Time = 647679

diagonal:  Solving for water.alpha, Initial residual = 0, Final residual = 0, No Iterations 0
water saturation: Min = 0.25 Max = 0.253535
DICPCG:  Solving for p, Initial residual = 1.08864e-05, Final residual = 3.26631e-21, No Iterations 1
time step continuity errors : sum local = 5.96456e-07, global = 5.96441e-07, cumulative = 7.07323e-06
Coats Number mean: 1.15521e-05 max: 1.16048e-05
deltaT = 59644.2
..... cell 0 .... kr water: 0.00716497
..... cell 0 .... kr oil: 0.414756
ExecutionTime = 0.15 s  ClockTime = 0 s

Time = 707323

diagonal:  Solving for water.alpha, Initial residual = 0, Final residual = 0, No Iterations 0
water saturation: Min = 0.25 Max = 0.253833
DICPCG:  Solving for p, Initial residual = 1.08906e-05, Final residual = 1.42885e-21, No Iterations 1
time step continuity errors : sum local = 5.96458e-07, global = 5.96443e-07, cumulative = 7.66968e-06
Coats Number mean: 1.15525e-05 max: 1.16048e-05
deltaT = 59644.2
..... cell 0 .... kr water: 0.00724498
..... cell 0 .... kr oil: 0.414303
ExecutionTime = 0.15 s  ClockTime = 0 s

Time = 766967

diagonal:  Solving for water.alpha, Initial residual = 0, Final residual = 0, No Iterations 0
water saturation: Min = 0.25 Max = 0.254131
DICPCG:  Solving for p, Initial residual = 1.08892e-05, Final residual = 5.83537e-21, No Iterations 1
time step continuity errors : sum local = 5.96456e-07, global = 5.96442e-07, cumulative = 8.26612e-06
Coats Number mean: 1.1553e-05 max: 1.16048e-05
deltaT = 59644.2
..... cell 0 .... kr water: 0.00732543
..... cell 0 .... kr oil: 0.413851
ExecutionTime = 0.15 s  ClockTime = 0 s

Time = 826612

diagonal:  Solving for water.alpha, Initial residual = 0, Final residual = 0, No Iterations 0
water saturation: Min = 0.25 Max = 0.254429
DICPCG:  Solving for p, Initial residual = 1.09131e-05, Final residual = 1.24181e-20, No Iterations 1
time step continuity errors : sum local = 5.96454e-07, global = 5.96443e-07, cumulative = 8.86256e-06
Coats Number mean: 1.15535e-05 max: 1.16049e-05
deltaT = 59644.2
..... cell 0 .... kr water: 0.00740632
..... cell 0 .... kr oil: 0.413399
ExecutionTime = 0.16 s  ClockTime = 0 s

Time = 886256

diagonal:  Solving for water.alpha, Initial residual = 0, Final residual = 0, No Iterations 0
water saturation: Min = 0.25 Max = 0.254727
DICPCG:  Solving for p, Initial residual = 1.09144e-05, Final residual = 2.86551e-20, No Iterations 1
time step continuity errors : sum local = 5.96457e-07, global = 5.96439e-07, cumulative = 9.459e-06
Coats Number mean: 1.15539e-05 max: 1.16049e-05
deltaT = 59644.2
..... cell 0 .... kr water: 0.00748766
..... cell 0 .... kr oil: 0.412948
ExecutionTime = 0.16 s  ClockTime = 0 s

Time = 945900

diagonal:  Solving for water.alpha, Initial residual = 0, Final residual = 0, No Iterations 0
water saturation: Min = 0.25 Max = 0.255025
DICPCG:  Solving for p, Initial residual = 1.09033e-05, Final residual = 1.69799e-20, No Iterations 1
time step continuity errors : sum local = 5.96457e-07, global = 5.96443e-07, cumulative = 1.00554e-05
Coats Number mean: 1.15544e-05 max: 1.16049e-05
deltaT = 59644.2
..... cell 0 .... kr water: 0.00756944
..... cell 0 .... kr oil: 0.412497
ExecutionTime = 0.16 s  ClockTime = 0 s

Time = 1.00554e+06

diagonal:  Solving for water.alpha, Initial residual = 0, Final residual = 0, No Iterations 0
water saturation: Min = 0.25 Max = 0.255323
DICPCG:  Solving for p, Initial residual = 1.09356e-05, Final residual = 3.22697e-21, No Iterations 1
time step continuity errors : sum local = 5.96456e-07, global = 5.96443e-07, cumulative = 1.06519e-05
Coats Number mean: 1.15548e-05 max: 1.16049e-05
deltaT = 59644.2
..... cell 0 .... kr water: 0.00765167
..... cell 0 .... kr oil: 0.412045
ExecutionTime = 0.17 s  ClockTime = 0 s

Time = 1.06519e+06

diagonal:  Solving for water.alpha, Initial residual = 0, Final residual = 0, No Iterations 0
water saturation: Min = 0.25 Max = 0.255621
DICPCG:  Solving for p, Initial residual = 1.09271e-05, Final residual = 5.05024e-21, No Iterations 1
time step continuity errors : sum local = 5.96455e-07, global = 5.96443e-07, cumulative = 1.12483e-05
Coats Number mean: 1.15553e-05 max: 1.16049e-05
deltaT = 59644.2
..... cell 0 .... kr water: 0.00773434
..... cell 0 .... kr oil: 0.411595
ExecutionTime = 0.17 s  ClockTime = 0 s

Time = 1.12483e+06

diagonal:  Solving for water.alpha, Initial residual = 0, Final residual = 0, No Iterations 0
water saturation: Min = 0.25 Max = 0.255919
DICPCG:  Solving for p, Initial residual = 1.09285e-05, Final residual = 4.8956e-21, No Iterations 1
time step continuity errors : sum local = 5.96457e-07, global = 5.96442e-07, cumulative = 1.18448e-05
Coats Number mean: 1.15558e-05 max: 1.16049e-05
deltaT = 59644.2
..... cell 0 .... kr water: 0.00781745
..... cell 0 .... kr oil: 0.411144
ExecutionTime = 0.17 s  ClockTime = 0 s

Time = 1.18448e+06

diagonal:  Solving for water.alpha, Initial residual = 0, Final residual = 0, No Iterations 0
water saturation: Min = 0.25 Max = 0.256217
DICPCG:  Solving for p, Initial residual = 1.09314e-05, Final residual = 3.09592e-21, No Iterations 1
time step continuity errors : sum local = 5.96456e-07, global = 5.96439e-07, cumulative = 1.24412e-05
Coats Number mean: 1.15562e-05 max: 1.16049e-05
deltaT = 59644.2
..... cell 0 .... kr water: 0.007901
..... cell 0 .... kr oil: 0.410694
ExecutionTime = 0.17 s  ClockTime = 0 s

Time = 1.24412e+06

diagonal:  Solving for water.alpha, Initial residual = 0, Final residual = 0, No Iterations 0
water saturation: Min = 0.25 Max = 0.256515
DICPCG:  Solving for p, Initial residual = 1.09384e-05, Final residual = 8.81303e-21, No Iterations 1
time step continuity errors : sum local = 5.96454e-07, global = 5.96443e-07, cumulative = 1.30377e-05
Coats Number mean: 1.15567e-05 max: 1.16049e-05
deltaT = 59644.2
..... cell 0 .... kr water: 0.007985
..... cell 0 .... kr oil: 0.410244
ExecutionTime = 0.18 s  ClockTime = 0 s

Time = 1.30377e+06

diagonal:  Solving for water.alpha, Initial residual = 0, Final residual = 0, No Iterations 0
water saturation: Min = 0.25 Max = 0.256814
DICPCG:  Solving for p, Initial residual = 1.09356e-05, Final residual = 8.83019e-21, No Iterations 1
time step continuity errors : sum local = 5.96455e-07, global = 5.96439e-07, cumulative = 1.36341e-05
Coats Number mean: 1.15571e-05 max: 1.16049e-05
deltaT = 59644.2
..... cell 0 .... kr water: 0.00806945
..... cell 0 .... kr oil: 0.409794
ExecutionTime = 0.18 s  ClockTime = 0 s

Time = 1.36341e+06

diagonal:  Solving for water.alpha, Initial residual = 0, Final residual = 0, No Iterations 0
water saturation: Min = 0.25 Max = 0.257112
DICPCG:  Solving for p, Initial residual = 1.09483e-05, Final residual = 2.1482e-21, No Iterations 1
time step continuity errors : sum local = 5.96457e-07, global = 5.96441e-07, cumulative = 1.42305e-05
Coats Number mean: 1.15576e-05 max: 1.16049e-05
deltaT = 59644.2
..... cell 0 .... kr water: 0.00815433
..... cell 0 .... kr oil: 0.409344
ExecutionTime = 0.18 s  ClockTime = 0 s

Time = 1.42305e+06

diagonal:  Solving for water.alpha, Initial residual = 0, Final residual = 0, No Iterations 0
water saturation: Min = 0.25 Max = 0.25741
DICPCG:  Solving for p, Initial residual = 1.09609e-05, Final residual = 1.16982e-20, No Iterations 1
time step continuity errors : sum local = 5.96456e-07, global = 5.96443e-07, cumulative = 1.4827e-05
Coats Number mean: 1.15581e-05 max: 1.1605e-05
deltaT = 59644.2
..... cell 0 .... kr water: 0.00823967
..... cell 0 .... kr oil: 0.408895
ExecutionTime = 0.19 s  ClockTime = 0 s

Time = 1.4827e+06

diagonal:  Solving for water.alpha, Initial residual = 0, Final residual = 0, No Iterations 0
water saturation: Min = 0.25 Max = 0.257708
DICPCG:  Solving for p, Initial residual = 1.09637e-05, Final residual = 4.36073e-21, No Iterations 1
time step continuity errors : sum local = 5.96455e-07, global = 5.96441e-07, cumulative = 1.54234e-05
Coats Number mean: 1.15586e-05 max: 1.1605e-05
deltaT = 59644.2
..... cell 0 .... kr water: 0.00832544
..... cell 0 .... kr oil: 0.408446
ExecutionTime = 0.19 s  ClockTime = 0 s

Time = 1.54234e+06

diagonal:  Solving for water.alpha, Initial residual = 0, Final residual = 0, No Iterations 0
water saturation: Min = 0.25 Max = 0.258006
DICPCG:  Solving for p, Initial residual = 1.09665e-05, Final residual = 7.06847e-21, No Iterations 1
time step continuity errors : sum local = 5.96455e-07, global = 5.96443e-07, cumulative = 1.60199e-05
Coats Number mean: 1.15591e-05 max: 1.1605e-05
deltaT = 59644.2
..... cell 0 .... kr water: 0.00841166
..... cell 0 .... kr oil: 0.407997
ExecutionTime = 0.19 s  ClockTime = 0 s

Time = 1.60199e+06

diagonal:  Solving for water.alpha, Initial residual = 0, Final residual = 0, No Iterations 0
water saturation: Min = 0.25 Max = 0.258304
DICPCG:  Solving for p, Initial residual = 1.0989e-05, Final residual = 3.0845e-21, No Iterations 1
time step continuity errors : sum local = 5.96456e-07, global = 5.96442e-07, cumulative = 1.66163e-05
Coats Number mean: 1.15595e-05 max: 1.1605e-05
deltaT = 59644.2
..... cell 0 .... kr water: 0.00849832
..... cell 0 .... kr oil: 0.407548
ExecutionTime = 0.2 s  ClockTime = 0 s

Time = 1.66163e+06

diagonal:  Solving for water.alpha, Initial residual = 0, Final residual = 0, No Iterations 0
water saturation: Min = 0.25 Max = 0.258602
DICPCG:  Solving for p, Initial residual = 1.09876e-05, Final residual = 7.27747e-21, No Iterations 1
time step continuity errors : sum local = 5.96457e-07, global = 5.9644e-07, cumulative = 1.72127e-05
Coats Number mean: 1.156e-05 max: 1.1605e-05
deltaT = 59644.2
..... cell 0 .... kr water: 0.00858542
..... cell 0 .... kr oil: 0.4071
ExecutionTime = 0.2 s  ClockTime = 0 s

Time = 1.72127e+06

diagonal:  Solving for water.alpha, Initial residual = 0, Final residual = 0, No Iterations 0
water saturation: Min = 0.25 Max = 0.2589
DICPCG:  Solving for p, Initial residual = 1.09806e-05, Final residual = 1.49194e-20, No Iterations 1
time step continuity errors : sum local = 5.96455e-07, global = 5.96444e-07, cumulative = 1.78092e-05
Coats Number mean: 1.15605e-05 max: 1.1605e-05
deltaT = 59644.2
..... cell 0 .... kr water: 0.00867297
..... cell 0 .... kr oil: 0.406652
ExecutionTime = 0.2 s  ClockTime = 0 s

Time = 1.78092e+06

diagonal:  Solving for water.alpha, Initial residual = 0, Final residual = 0, No Iterations 0
water saturation: Min = 0.25 Max = 0.259198
DICPCG:  Solving for p, Initial residual = 1.09566e-05, Final residual = 3.56406e-21, No Iterations 1
time step continuity errors : sum local = 5.96454e-07, global = 5.96442e-07, cumulative = 1.84056e-05
Coats Number mean: 1.1561e-05 max: 1.1605e-05
deltaT = 59644.2
..... cell 0 .... kr water: 0.00876096
..... cell 0 .... kr oil: 0.406204
ExecutionTime = 0.21 s  ClockTime = 0 s

Time = 1.84056e+06

diagonal:  Solving for water.alpha, Initial residual = 0, Final residual = 0, No Iterations 0
water saturation: Min = 0.25 Max = 0.259496
DICPCG:  Solving for p, Initial residual = 1.09806e-05, Final residual = 2.62275e-21, No Iterations 1
time step continuity errors : sum local = 5.96456e-07, global = 5.96441e-07, cumulative = 1.90021e-05
Coats Number mean: 1.15615e-05 max: 1.16051e-05
deltaT = 59644.2
..... cell 0 .... kr water: 0.0088494
..... cell 0 .... kr oil: 0.405757
ExecutionTime = 0.21 s  ClockTime = 0 s

Time = 1.90021e+06

diagonal:  Solving for water.alpha, Initial residual = 0, Final residual = 0, No Iterations 0
water saturation: Min = 0.25 Max = 0.259794
DICPCG:  Solving for p, Initial residual = 1.09792e-05, Final residual = 2.53449e-21, No Iterations 1
time step continuity errors : sum local = 5.96455e-07, global = 5.96442e-07, cumulative = 1.95985e-05
Coats Number mean: 1.1562e-05 max: 1.16051e-05
deltaT = 59644.2
..... cell 0 .... kr water: 0.00893828
..... cell 0 .... kr oil: 0.405309
ExecutionTime = 0.21 s  ClockTime = 0 s

Time = 1.95985e+06

diagonal:  Solving for water.alpha, Initial residual = 0, Final residual = 0, No Iterations 0
water saturation: Min = 0.25 Max = 0.260092
DICPCG:  Solving for p, Initial residual = 1.09749e-05, Final residual = 3.74401e-21, No Iterations 1
time step continuity errors : sum local = 5.96454e-07, global = 5.96442e-07, cumulative = 2.0195e-05
Coats Number mean: 1.15624e-05 max: 1.16051e-05
deltaT = 59644.2
..... cell 0 .... kr water: 0.0090276
..... cell 0 .... kr oil: 0.404862
ExecutionTime = 0.22 s  ClockTime = 0 s

Time = 2.0195e+06

diagonal:  Solving for water.alpha, Initial residual = 0, Final residual = 0, No Iterations 0
water saturation: Min = 0.25 Max = 0.26039
DICPCG:  Solving for p, Initial residual = 1.09862e-05, Final residual = 4.79155e-21, No Iterations 1
time step continuity errors : sum local = 5.96456e-07, global = 5.96443e-07, cumulative = 2.07914e-05
Coats Number mean: 1.15629e-05 max: 1.16051e-05
deltaT = 59644.2
..... cell 0 .... kr water: 0.00911736
..... cell 0 .... kr oil: 0.404415
ExecutionTime = 0.22 s  ClockTime = 0 s

Time = 2.07914e+06

diagonal:  Solving for water.alpha, Initial residual = 0, Final residual = 0, No Iterations 0
water saturation: Min = 0.25 Max = 0.260688
DICPCG:  Solving for p, Initial residual = 1.10143e-05, Final residual = 4.12329e-21, No Iterations 1
time step continuity errors : sum local = 5.96457e-07, global = 5.96442e-07, cumulative = 2.13878e-05
Coats Number mean: 1.15634e-05 max: 1.16051e-05
deltaT = 59644.2
..... cell 0 .... kr water: 0.00920757
..... cell 0 .... kr oil: 0.403969
ExecutionTime = 0.22 s  ClockTime = 0 s

Time = 2.13878e+06

diagonal:  Solving for water.alpha, Initial residual = 0, Final residual = 0, No Iterations 0
water saturation: Min = 0.25 Max = 0.260986
DICPCG:  Solving for p, Initial residual = 1.10143e-05, Final residual = 3.29288e-21, No Iterations 1
time step continuity errors : sum local = 5.96456e-07, global = 5.96443e-07, cumulative = 2.19843e-05
Coats Number mean: 1.15639e-05 max: 1.16052e-05
deltaT = 59644.2
..... cell 0 .... kr water: 0.00929823
..... cell 0 .... kr oil: 0.403522
ExecutionTime = 0.23 s  ClockTime = 0 s

Time = 2.19843e+06

diagonal:  Solving for water.alpha, Initial residual = 0, Final residual = 0, No Iterations 0
water saturation: Min = 0.25 Max = 0.261284
DICPCG:  Solving for p, Initial residual = 1.10227e-05, Final residual = 9.6943e-21, No Iterations 1
time step continuity errors : sum local = 5.96457e-07, global = 5.96441e-07, cumulative = 2.25807e-05
Coats Number mean: 1.15644e-05 max: 1.16052e-05
deltaT = 59644.2
..... cell 0 .... kr water: 0.00938932
..... cell 0 .... kr oil: 0.403076
ExecutionTime = 0.23 s  ClockTime = 0 s

Time = 2.25807e+06

diagonal:  Solving for water.alpha, Initial residual = 0, Final residual = 0, No Iterations 0
water saturation: Min = 0.25 Max = 0.261582
DICPCG:  Solving for p, Initial residual = 1.10171e-05, Final residual = 1.16794e-20, No Iterations 1
time step continuity errors : sum local = 5.96456e-07, global = 5.96444e-07, cumulative = 2.31772e-05
Coats Number mean: 1.15649e-05 max: 1.16052e-05
deltaT = 59644.2
..... cell 0 .... kr water: 0.00948086
..... cell 0 .... kr oil: 0.40263
ExecutionTime = 0.23 s  ClockTime = 0 s

Time = 2.31772e+06

diagonal:  Solving for water.alpha, Initial residual = 0, Final residual = 0, No Iterations 0
water saturation: Min = 0.25 Max = 0.26188
DICPCG:  Solving for p, Initial residual = 1.10326e-05, Final residual = 2.24921e-20, No Iterations 1
time step continuity errors : sum local = 5.96456e-07, global = 5.9644e-07, cumulative = 2.37736e-05
Coats Number mean: 1.15654e-05 max: 1.16052e-05
deltaT = 59644.2
..... cell 0 .... kr water: 0.00957284
..... cell 0 .... kr oil: 0.402185
ExecutionTime = 0.23 s  ClockTime = 0 s

Time = 2.37736e+06

diagonal:  Solving for water.alpha, Initial residual = 0, Final residual = 0, No Iterations 0
water saturation: Min = 0.25 Max = 0.262178
DICPCG:  Solving for p, Initial residual = 1.10551e-05, Final residual = 2.2163e-21, No Iterations 1
time step continuity errors : sum local = 5.96457e-07, global = 5.9644e-07, cumulative = 2.437e-05
Coats Number mean: 1.15659e-05 max: 1.16053e-05
deltaT = 59644.2
..... cell 0 .... kr water: 0.00966527
..... cell 0 .... kr oil: 0.40174
ExecutionTime = 0.24 s  ClockTime = 0 s

Time = 2.437e+06

diagonal:  Solving for water.alpha, Initial residual = 0, Final residual = 0, No Iterations 0
water saturation: Min = 0.25 Max = 0.262476
DICPCG:  Solving for p, Initial residual = 1.10368e-05, Final residual = 1.18116e-20, No Iterations 1
time step continuity errors : sum local = 5.96457e-07, global = 5.96444e-07, cumulative = 2.49665e-05
Coats Number mean: 1.15664e-05 max: 1.16053e-05
deltaT = 59644.2
..... cell 0 .... kr water: 0.00975814
..... cell 0 .... kr oil: 0.401294
ExecutionTime = 0.24 s  ClockTime = 0 s

Time = 2.49665e+06

diagonal:  Solving for water.alpha, Initial residual = 0, Final residual = 0, No Iterations 0
water saturation: Min = 0.25 Max = 0.262774
DICPCG:  Solving for p, Initial residual = 1.10593e-05, Final residual = 1.5874e-20, No Iterations 1
time step continuity errors : sum local = 5.96458e-07, global = 5.96439e-07, cumulative = 2.55629e-05
Coats Number mean: 1.15668e-05 max: 1.16053e-05
deltaT = 59644.2
..... cell 0 .... kr water: 0.00985145
..... cell 0 .... kr oil: 0.40085
ExecutionTime = 0.24 s  ClockTime = 0 s

Time = 2.55629e+06

diagonal:  Solving for water.alpha, Initial residual = 0, Final residual = 0, No Iterations 0
water saturation: Min = 0.25 Max = 0.263072
DICPCG:  Solving for p, Initial residual = 1.10622e-05, Final residual = 1.38426e-20, No Iterations 1
time step continuity errors : sum local = 5.96455e-07, global = 5.96442e-07, cumulative = 2.61594e-05
Coats Number mean: 1.15674e-05 max: 1.16053e-05
deltaT = 59644.2
..... cell 0 .... kr water: 0.00994521
..... cell 0 .... kr oil: 0.400405
ExecutionTime = 0.25 s  ClockTime = 0 s

Time = 2.61594e+06

diagonal:  Solving for water.alpha, Initial residual = 0, Final residual = 0, No Iterations 0
water saturation: Min = 0.25 Max = 0.26337
DICPCG:  Solving for p, Initial residual = 1.10593e-05, Final residual = 1.51206e-21, No Iterations 1
time step continuity errors : sum local = 5.96457e-07, global = 5.96442e-07, cumulative = 2.67558e-05
Coats Number mean: 1.15679e-05 max: 1.16054e-05
deltaT = 59644.2
..... cell 0 .... kr water: 0.0100394
..... cell 0 .... kr oil: 0.399961
ExecutionTime = 0.25 s  ClockTime = 0 s

Time = 2.67558e+06

diagonal:  Solving for water.alpha, Initial residual = 0, Final residual = 0, No Iterations 0
water saturation: Min = 0.25 Max = 0.263668
DICPCG:  Solving for p, Initial residual = 1.10846e-05, Final residual = 1.22182e-21, No Iterations 1
time step continuity errors : sum local = 5.96457e-07, global = 5.96443e-07, cumulative = 2.73523e-05
Coats Number mean: 1.15684e-05 max: 1.16054e-05
deltaT = 59644.2
..... cell 0 .... kr water: 0.010134
..... cell 0 .... kr oil: 0.399517
ExecutionTime = 0.25 s  ClockTime = 0 s

Time = 2.73523e+06

diagonal:  Solving for water.alpha, Initial residual = 0, Final residual = 0, No Iterations 0
water saturation: Min = 0.25 Max = 0.263966
DICPCG:  Solving for p, Initial residual = 1.10959e-05, Final residual = 7.5911e-21, No Iterations 1
time step continuity errors : sum local = 5.96456e-07, global = 5.96443e-07, cumulative = 2.79487e-05
Coats Number mean: 1.15689e-05 max: 1.16054e-05
deltaT = 59644.2
..... cell 0 .... kr water: 0.0102291
..... cell 0 .... kr oil: 0.399073
ExecutionTime = 0.26 s  ClockTime = 0 s

Time = 2.79487e+06

diagonal:  Solving for water.alpha, Initial residual = 0, Final residual = 0, No Iterations 0
water saturation: Min = 0.25 Max = 0.264264
DICPCG:  Solving for p, Initial residual = 1.10734e-05, Final residual = 1.51844e-20, No Iterations 1
time step continuity errors : sum local = 5.96455e-07, global = 5.96439e-07, cumulative = 2.85451e-05
Coats Number mean: 1.15694e-05 max: 1.16054e-05
deltaT = 59644.2
..... cell 0 .... kr water: 0.0103247
..... cell 0 .... kr oil: 0.398629
ExecutionTime = 0.26 s  ClockTime = 0 s

Time = 2.85451e+06

diagonal:  Solving for water.alpha, Initial residual = 0, Final residual = 0, No Iterations 0
water saturation: Min = 0.25 Max = 0.264562
DICPCG:  Solving for p, Initial residual = 1.10607e-05, Final residual = 8.1858e-21, No Iterations 1
time step continuity errors : sum local = 5.96456e-07, global = 5.96442e-07, cumulative = 2.91416e-05
Coats Number mean: 1.15699e-05 max: 1.16055e-05
deltaT = 59644.2
..... cell 0 .... kr water: 0.0104206
..... cell 0 .... kr oil: 0.398186
ExecutionTime = 0.26 s  ClockTime = 0 s

Time = 2.91416e+06

diagonal:  Solving for water.alpha, Initial residual = 0, Final residual = 0, No Iterations 0
water saturation: Min = 0.25 Max = 0.26486
DICPCG:  Solving for p, Initial residual = 1.10874e-05, Final residual = 5.10156e-21, No Iterations 1
time step continuity errors : sum local = 5.96455e-07, global = 5.96442e-07, cumulative = 2.9738e-05
Coats Number mean: 1.15704e-05 max: 1.16055e-05
deltaT = 59644.2
..... cell 0 .... kr water: 0.010517
..... cell 0 .... kr oil: 0.397743
ExecutionTime = 0.27 s  ClockTime = 0 s

Time = 2.9738e+06

diagonal:  Solving for water.alpha, Initial residual = 0, Final residual = 0, No Iterations 0
water saturation: Min = 0.25 Max = 0.265158
DICPCG:  Solving for p, Initial residual = 1.10734e-05, Final residual = 4.63127e-21, No Iterations 1
time step continuity errors : sum local = 5.96455e-07, global = 5.96439e-07, cumulative = 3.03345e-05
Coats Number mean: 1.15709e-05 max: 1.16055e-05
deltaT = 59644.2
..... cell 0 .... kr water: 0.0106139
..... cell 0 .... kr oil: 0.3973
ExecutionTime = 0.27 s  ClockTime = 0 s

Time = 3.03345e+06

diagonal:  Solving for water.alpha, Initial residual = 0, Final residual = 0, No Iterations 0
water saturation: Min = 0.25 Max = 0.265456
DICPCG:  Solving for p, Initial residual = 1.11058e-05, Final residual = 2.53245e-21, No Iterations 1
time step continuity errors : sum local = 5.96455e-07, global = 5.96441e-07, cumulative = 3.09309e-05
Coats Number mean: 1.15714e-05 max: 1.16056e-05
deltaT = 59644.2
..... cell 0 .... kr water: 0.0107112
..... cell 0 .... kr oil: 0.396857
ExecutionTime = 0.27 s  ClockTime = 0 s

Time = 3.09309e+06

diagonal:  Solving for water.alpha, Initial residual = 0, Final residual = 0, No Iterations 0
water saturation: Min = 0.25 Max = 0.265754
DICPCG:  Solving for p, Initial residual = 1.10973e-05, Final residual = 6.40112e-21, No Iterations 1
time step continuity errors : sum local = 5.96456e-07, global = 5.96441e-07, cumulative = 3.15273e-05
Coats Number mean: 1.15719e-05 max: 1.16056e-05
deltaT = 59644.2
..... cell 0 .... kr water: 0.010809
..... cell 0 .... kr oil: 0.396415
ExecutionTime = 0.28 s  ClockTime = 0 s

Time = 3.15273e+06

diagonal:  Solving for water.alpha, Initial residual = 0, Final residual = 0, No Iterations 0
water saturation: Min = 0.25 Max = 0.266052
DICPCG:  Solving for p, Initial residual = 1.11282e-05, Final residual = 1.07821e-20, No Iterations 1
time step continuity errors : sum local = 5.96457e-07, global = 5.96444e-07, cumulative = 3.21238e-05
Coats Number mean: 1.15725e-05 max: 1.16056e-05
deltaT = 59644.2
..... cell 0 .... kr water: 0.0109071
..... cell 0 .... kr oil: 0.395973
ExecutionTime = 0.28 s  ClockTime = 0 s

Time = 3.21238e+06

diagonal:  Solving for water.alpha, Initial residual = 0, Final residual = 0, No Iterations 0
water saturation: Min = 0.25 Max = 0.26635
DICPCG:  Solving for p, Initial residual = 1.1131e-05, Final residual = 1.92929e-20, No Iterations 1
time step continuity errors : sum local = 5.96457e-07, global = 5.96441e-07, cumulative = 3.27202e-05
Coats Number mean: 1.1573e-05 max: 1.16057e-05
deltaT = 59644.2
..... cell 0 .... kr water: 0.0110058
..... cell 0 .... kr oil: 0.395531
ExecutionTime = 0.28 s  ClockTime = 0 s

Time = 3.27202e+06

diagonal:  Solving for water.alpha, Initial residual = 0, Final residual = 0, No Iterations 0
water saturation: Min = 0.25 Max = 0.266648
DICPCG:  Solving for p, Initial residual = 1.11311e-05, Final residual = 1.1192e-20, No Iterations 1
time step continuity errors : sum local = 5.96454e-07, global = 5.96443e-07, cumulative = 3.33167e-05
Coats Number mean: 1.15735e-05 max: 1.16057e-05
deltaT = 59644.2
..... cell 0 .... kr water: 0.0111048
..... cell 0 .... kr oil: 0.39509
ExecutionTime = 0.28 s  ClockTime = 0 s

Time = 3.33167e+06

diagonal:  Solving for water.alpha, Initial residual = 0, Final residual = 0, No Iterations 0
water saturation: Min = 0.25 Max = 0.266946
DICPCG:  Solving for p, Initial residual = 1.11015e-05, Final residual = 1.27494e-20, No Iterations 1
time step continuity errors : sum local = 5.96455e-07, global = 5.96446e-07, cumulative = 3.39131e-05
Coats Number mean: 1.15741e-05 max: 1.16057e-05
deltaT = 59644.2
..... cell 0 .... kr water: 0.0112044
..... cell 0 .... kr oil: 0.394648
ExecutionTime = 0.29 s  ClockTime = 0 s

Time = 3.39131e+06

diagonal:  Solving for water.alpha, Initial residual = 0, Final residual = 0, No Iterations 0
water saturation: Min = 0.25 Max = 0.267244
DICPCG:  Solving for p, Initial residual = 1.11141e-05, Final residual = 2.52586e-20, No Iterations 1
time step continuity errors : sum local = 5.96456e-07, global = 5.9644e-07, cumulative = 3.45096e-05
Coats Number mean: 1.15745e-05 max: 1.16058e-05
deltaT = 59644.2
..... cell 0 .... kr water: 0.0113043
..... cell 0 .... kr oil: 0.394207
ExecutionTime = 0.29 s  ClockTime = 0 s

Time = 3.45096e+06

diagonal:  Solving for water.alpha, Initial residual = 0, Final residual = 0, No Iterations 0
water saturation: Min = 0.25 Max = 0.267542
DICPCG:  Solving for p, Initial residual = 1.11184e-05, Final residual = 6.65229e-21, No Iterations 1
time step continuity errors : sum local = 5.96457e-07, global = 5.96443e-07, cumulative = 3.5106e-05
Coats Number mean: 1.15751e-05 max: 1.16058e-05
deltaT = 59644.2
..... cell 0 .... kr water: 0.0114047
..... cell 0 .... kr oil: 0.393766
ExecutionTime = 0.29 s  ClockTime = 0 s

Time = 3.5106e+06

diagonal:  Solving for water.alpha, Initial residual = 0, Final residual = 0, No Iterations 0
water saturation: Min = 0.25 Max = 0.26784
DICPCG:  Solving for p, Initial residual = 1.11296e-05, Final residual = 3.17665e-21, No Iterations 1
time step continuity errors : sum local = 5.96454e-07, global = 5.96443e-07, cumulative = 3.57024e-05
Coats Number mean: 1.15756e-05 max: 1.16058e-05
deltaT = 59644.2
..... cell 0 .... kr water: 0.0115056
..... cell 0 .... kr oil: 0.393326
ExecutionTime = 0.3 s  ClockTime = 0 s

Time = 3.57024e+06

diagonal:  Solving for water.alpha, Initial residual = 0, Final residual = 0, No Iterations 0
water saturation: Min = 0.25 Max = 0.268138
DICPCG:  Solving for p, Initial residual = 1.11226e-05, Final residual = 3.98736e-21, No Iterations 1
time step continuity errors : sum local = 5.96455e-07, global = 5.96441e-07, cumulative = 3.62989e-05
Coats Number mean: 1.15761e-05 max: 1.16059e-05
deltaT = 59644.2
..... cell 0 .... kr water: 0.0116069
..... cell 0 .... kr oil: 0.392885
ExecutionTime = 0.3 s  ClockTime = 0 s

Time = 3.62989e+06

diagonal:  Solving for water.alpha, Initial residual = 0, Final residual = 0, No Iterations 0
water saturation: Min = 0.25 Max = 0.268436
DICPCG:  Solving for p, Initial residual = 1.1117e-05, Final residual = 2.17629e-21, No Iterations 1
time step continuity errors : sum local = 5.96453e-07, global = 5.96441e-07, cumulative = 3.68953e-05
Coats Number mean: 1.15766e-05 max: 1.16059e-05
deltaT = 59644.2
..... cell 0 .... kr water: 0.0117086
..... cell 0 .... kr oil: 0.392445
ExecutionTime = 0.3 s  ClockTime = 0 s

Time = 3.68953e+06

diagonal:  Solving for water.alpha, Initial residual = 0, Final residual = 0, No Iterations 0
water saturation: Min = 0.25 Max = 0.268734
DICPCG:  Solving for p, Initial residual = 1.11437e-05, Final residual = 2.02474e-20, No Iterations 1
time step continuity errors : sum local = 5.96458e-07, global = 5.96445e-07, cumulative = 3.74918e-05
Coats Number mean: 1.15772e-05 max: 1.1606e-05
deltaT = 59644.2
..... cell 0 .... kr water: 0.0118108
..... cell 0 .... kr oil: 0.392006
ExecutionTime = 0.31 s  ClockTime = 0 s

Time = 3.74918e+06

diagonal:  Solving for water.alpha, Initial residual = 0, Final residual = 0, No Iterations 0
water saturation: Min = 0.25 Max = 0.269032
DICPCG:  Solving for p, Initial residual = 1.11887e-05, Final residual = 1.04223e-20, No Iterations 1
time step continuity errors : sum local = 5.96456e-07, global = 5.96443e-07, cumulative = 3.80882e-05
Coats Number mean: 1.15777e-05 max: 1.1606e-05
deltaT = 59644.2
..... cell 0 .... kr water: 0.0119134
..... cell 0 .... kr oil: 0.391566
ExecutionTime = 0.31 s  ClockTime = 0 s

Time = 3.80882e+06

diagonal:  Solving for water.alpha, Initial residual = 0, Final residual = 0, No Iterations 0
water saturation: Min = 0.25 Max = 0.26933
DICPCG:  Solving for p, Initial residual = 1.1162e-05, Final residual = 1.1818e-20, No Iterations 1
time step continuity errors : sum local = 5.96456e-07, global = 5.96441e-07, cumulative = 3.86847e-05
Coats Number mean: 1.15782e-05 max: 1.1606e-05
deltaT = 59644.2
..... cell 0 .... kr water: 0.0120164
..... cell 0 .... kr oil: 0.391127
ExecutionTime = 0.31 s  ClockTime = 0 s

Time = 3.86847e+06

diagonal:  Solving for water.alpha, Initial residual = 0, Final residual = 0, No Iterations 0
water saturation: Min = 0.25 Max = 0.269627
DICPCG:  Solving for p, Initial residual = 1.11761e-05, Final residual = 7.37677e-21, No Iterations 1
time step continuity errors : sum local = 5.96458e-07, global = 5.96442e-07, cumulative = 3.92811e-05
Coats Number mean: 1.15788e-05 max: 1.16061e-05
deltaT = 59644.2
..... cell 0 .... kr water: 0.01212
..... cell 0 .... kr oil: 0.390688
ExecutionTime = 0.31 s  ClockTime = 0 s

Time = 3.92811e+06

diagonal:  Solving for water.alpha, Initial residual = 0, Final residual = 0, No Iterations 0
water saturation: Min = 0.25 Max = 0.269925
DICPCG:  Solving for p, Initial residual = 1.12014e-05, Final residual = 6.87251e-21, No Iterations 1
time step continuity errors : sum local = 5.96455e-07, global = 5.9644e-07, cumulative = 3.98775e-05
Coats Number mean: 1.15793e-05 max: 1.16061e-05
deltaT = 59644.2
..... cell 0 .... kr water: 0.0122239
..... cell 0 .... kr oil: 0.390249
ExecutionTime = 0.32 s  ClockTime = 0 s

Time = 3.98775e+06

diagonal:  Solving for water.alpha, Initial residual = 0, Final residual = 0, No Iterations 0
water saturation: Min = 0.25 Max = 0.270223
DICPCG:  Solving for p, Initial residual = 1.11761e-05, Final residual = 1.46928e-20, No Iterations 1
time step continuity errors : sum local = 5.96456e-07, global = 5.96445e-07, cumulative = 4.0474e-05
Coats Number mean: 1.15799e-05 max: 1.16062e-05
deltaT = 59644.2
..... cell 0 .... kr water: 0.0123283
..... cell 0 .... kr oil: 0.38981
ExecutionTime = 0.32 s  ClockTime = 0 s

Time = 4.0474e+06

diagonal:  Solving for water.alpha, Initial residual = 0, Final residual = 0, No Iterations 0
water saturation: Min = 0.25 Max = 0.270521
DICPCG:  Solving for p, Initial residual = 1.12056e-05, Final residual = 2.4786e-20, No Iterations 1
time step continuity errors : sum local = 5.96456e-07, global = 5.96437e-07, cumulative = 4.10704e-05
Coats Number mean: 1.15804e-05 max: 1.16062e-05
deltaT = 59644.2
..... cell 0 .... kr water: 0.0124331
..... cell 0 .... kr oil: 0.389372
ExecutionTime = 0.33 s  ClockTime = 0 s

Time = 4.10704e+06

diagonal:  Solving for water.alpha, Initial residual = 0, Final residual = 0, No Iterations 0
water saturation: Min = 0.25 Max = 0.270819
DICPCG:  Solving for p, Initial residual = 1.12042e-05, Final residual = 1.59332e-21, No Iterations 1
time step continuity errors : sum local = 5.96457e-07, global = 5.9644e-07, cumulative = 4.16669e-05
Coats Number mean: 1.15809e-05 max: 1.16063e-05
deltaT = 59644.2
..... cell 0 .... kr water: 0.0125384
..... cell 0 .... kr oil: 0.388934
ExecutionTime = 0.33 s  ClockTime = 0 s

Time = 4.16669e+06

diagonal:  Solving for water.alpha, Initial residual = 0, Final residual = 0, No Iterations 0
water saturation: Min = 0.25 Max = 0.271117
DICPCG:  Solving for p, Initial residual = 1.12253e-05, Final residual = 4.43412e-21, No Iterations 1
time step continuity errors : sum local = 5.96455e-07, global = 5.96439e-07, cumulative = 4.22633e-05
Coats Number mean: 1.15814e-05 max: 1.16063e-05
deltaT = 59644.2
..... cell 0 .... kr water: 0.0126441
..... cell 0 .... kr oil: 0.388496
ExecutionTime = 0.33 s  ClockTime = 0 s

Time = 4.22633e+06

diagonal:  Solving for water.alpha, Initial residual = 0, Final residual = 0, No Iterations 0
water saturation: Min = 0.25 Max = 0.271415
DICPCG:  Solving for p, Initial residual = 1.11873e-05, Final residual = 6.56762e-21, No Iterations 1
time step continuity errors : sum local = 5.96455e-07, global = 5.9644e-07, cumulative = 4.28597e-05
Coats Number mean: 1.1582e-05 max: 1.16063e-05
deltaT = 59644.2
..... cell 0 .... kr water: 0.0127503
..... cell 0 .... kr oil: 0.388058
ExecutionTime = 0.34 s  ClockTime = 0 s

Time = 4.28597e+06

diagonal:  Solving for water.alpha, Initial residual = 0, Final residual = 0, No Iterations 0
water saturation: Min = 0.25 Max = 0.271713
DICPCG:  Solving for p, Initial residual = 1.12014e-05, Final residual = 2.60742e-21, No Iterations 1
time step continuity errors : sum local = 5.96456e-07, global = 5.9644e-07, cumulative = 4.34562e-05
Coats Number mean: 1.15825e-05 max: 1.16064e-05
deltaT = 59644.2
..... cell 0 .... kr water: 0.0128569
..... cell 0 .... kr oil: 0.387621
ExecutionTime = 0.34 s  ClockTime = 0 s

Time = 4.34562e+06

diagonal:  Solving for water.alpha, Initial residual = 0, Final residual = 0, No Iterations 0
water saturation: Min = 0.25 Max = 0.272011
DICPCG:  Solving for p, Initial residual = 1.12295e-05, Final residual = 3.60961e-20, No Iterations 1
time step continuity errors : sum local = 5.96456e-07, global = 5.96447e-07, cumulative = 4.40526e-05
Coats Number mean: 1.15832e-05 max: 1.16064e-05
deltaT = 59644.2
..... cell 0 .... kr water: 0.0129639
..... cell 0 .... kr oil: 0.387184
ExecutionTime = 0.34 s  ClockTime = 0 s

Time = 4.40526e+06

diagonal:  Solving for water.alpha, Initial residual = 0, Final residual = 0, No Iterations 0
water saturation: Min = 0.25 Max = 0.272309
DICPCG:  Solving for p, Initial residual = 1.12407e-05, Final residual = 2.69316e-20, No Iterations 1
time step continuity errors : sum local = 5.96457e-07, global = 5.96442e-07, cumulative = 4.46491e-05
Coats Number mean: 1.15837e-05 max: 1.16065e-05
deltaT = 59644.2
..... cell 0 .... kr water: 0.0130714
..... cell 0 .... kr oil: 0.386747
ExecutionTime = 0.35 s  ClockTime = 0 s

Time = 4.46491e+06

diagonal:  Solving for water.alpha, Initial residual = 0, Final residual = 0, No Iterations 0
water saturation: Min = 0.25 Max = 0.272607
DICPCG:  Solving for p, Initial residual = 1.12408e-05, Final residual = 1.72016e-21, No Iterations 1
time step continuity errors : sum local = 5.96455e-07, global = 5.96443e-07, cumulative = 4.52455e-05
Coats Number mean: 1.15842e-05 max: 1.16065e-05
deltaT = 59644.2
..... cell 0 .... kr water: 0.0131794
..... cell 0 .... kr oil: 0.386311
ExecutionTime = 0.35 s  ClockTime = 0 s

Time = 4.52455e+06

diagonal:  Solving for water.alpha, Initial residual = 0, Final residual = 0, No Iterations 0
water saturation: Min = 0.25 Max = 0.272905
DICPCG:  Solving for p, Initial residual = 1.12295e-05, Final residual = 6.60305e-21, No Iterations 1
time step continuity errors : sum local = 5.96454e-07, global = 5.96443e-07, cumulative = 4.58419e-05
Coats Number mean: 1.15848e-05 max: 1.16066e-05
deltaT = 59644.2
..... cell 0 .... kr water: 0.0132877
..... cell 0 .... kr oil: 0.385874
ExecutionTime = 0.35 s  ClockTime = 0 s

Time = 4.5842e+06

diagonal:  Solving for water.alpha, Initial residual = 0, Final residual = 0, No Iterations 0
water saturation: Min = 0.25 Max = 0.273203
DICPCG:  Solving for p, Initial residual = 1.12464e-05, Final residual = 1.05032e-20, No Iterations 1
time step continuity errors : sum local = 5.96455e-07, global = 5.9644e-07, cumulative = 4.64384e-05
Coats Number mean: 1.15853e-05 max: 1.16066e-05
deltaT = 59644.2
..... cell 0 .... kr water: 0.0133965
..... cell 0 .... kr oil: 0.385438
ExecutionTime = 0.36 s  ClockTime = 0 s

Time = 4.64384e+06

diagonal:  Solving for water.alpha, Initial residual = 0, Final residual = 0, No Iterations 0
water saturation: Min = 0.25 Max = 0.273501
DICPCG:  Solving for p, Initial residual = 1.12323e-05, Final residual = 6.27767e-21, No Iterations 1
time step continuity errors : sum local = 5.96455e-07, global = 5.96441e-07, cumulative = 4.70348e-05
Coats Number mean: 1.15859e-05 max: 1.16067e-05
deltaT = 59644.2
..... cell 0 .... kr water: 0.0135058
..... cell 0 .... kr oil: 0.385002
ExecutionTime = 0.36 s  ClockTime = 0 s

Time = 4.70348e+06

diagonal:  Solving for water.alpha, Initial residual = 0, Final residual = 0, No Iterations 0
water saturation: Min = 0.25 Max = 0.273798
DICPCG:  Solving for p, Initial residual = 1.12576e-05, Final residual = 3.02761e-21, No Iterations 1
time step continuity errors : sum local = 5.96455e-07, global = 5.96441e-07, cumulative = 4.76313e-05
Coats Number mean: 1.15864e-05 max: 1.16067e-05
deltaT = 59644.2
..... cell 0 .... kr water: 0.0136155
..... cell 0 .... kr oil: 0.384567
ExecutionTime = 0.36 s  ClockTime = 0 s

Time = 4.76313e+06

diagonal:  Solving for water.alpha, Initial residual = 0, Final residual = 0, No Iterations 0
water saturation: Min = 0.25 Max = 0.274096
DICPCG:  Solving for p, Initial residual = 1.12506e-05, Final residual = 2.82922e-21, No Iterations 1
time step continuity errors : sum local = 5.96454e-07, global = 5.96443e-07, cumulative = 4.82277e-05
Coats Number mean: 1.1587e-05 max: 1.16068e-05
deltaT = 59644.2
..... cell 0 .... kr water: 0.0137257
..... cell 0 .... kr oil: 0.384132
ExecutionTime = 0.37 s  ClockTime = 0 s

Time = 4.82277e+06

diagonal:  Solving for water.alpha, Initial residual = 0, Final residual = 0, No Iterations 0
water saturation: Min = 0.25 Max = 0.274394
DICPCG:  Solving for p, Initial residual = 1.1266e-05, Final residual = 4.37505e-21, No Iterations 1
time step continuity errors : sum local = 5.96456e-07, global = 5.96441e-07, cumulative = 4.88242e-05
Coats Number mean: 1.15876e-05 max: 1.16069e-05
deltaT = 59644.2
..... cell 0 .... kr water: 0.0138362
..... cell 0 .... kr oil: 0.383696
ExecutionTime = 0.37 s  ClockTime = 0 s

Time = 4.88242e+06

diagonal:  Solving for water.alpha, Initial residual = 0, Final residual = 0, No Iterations 0
water saturation: Min = 0.25 Max = 0.274692
DICPCG:  Solving for p, Initial residual = 1.12485e-05, Final residual = 6.77814e-21, No Iterations 1
time step continuity errors : sum local = 5.96455e-07, global = 5.96442e-07, cumulative = 4.94206e-05
Coats Number mean: 1.15881e-05 max: 1.16069e-05
deltaT = 59644.2
..... cell 0 .... kr water: 0.0139473
..... cell 0 .... kr oil: 0.383262
ExecutionTime = 0.37 s  ClockTime = 0 s

Time = 4.94206e+06

diagonal:  Solving for water.alpha, Initial residual = 0, Final residual = 0, No Iterations 0
water saturation: Min = 0.25 Max = 0.27499
DICPCG:  Solving for p, Initial residual = 1.12963e-05, Final residual = 1.17764e-20, No Iterations 1
time step continuity errors : sum local = 5.96458e-07, global = 5.9644e-07, cumulative = 5.0017e-05
Coats Number mean: 1.15887e-05 max: 1.1607e-05
deltaT = 59644.2
..... cell 0 .... kr water: 0.0140588
..... cell 0 .... kr oil: 0.382827
ExecutionTime = 0.38 s  ClockTime = 0 s

Time = 5.0017e+06

diagonal:  Solving for water.alpha, Initial residual = 0, Final residual = 0, No Iterations 0
water saturation: Min = 0.25 Max = 0.275288
DICPCG:  Solving for p, Initial residual = 1.12717e-05, Final residual = 4.21728e-21, No Iterations 1
time step continuity errors : sum local = 5.96455e-07, global = 5.96443e-07, cumulative = 5.06135e-05
Coats Number mean: 1.15893e-05 max: 1.1607e-05
deltaT = 59644.2
..... cell 0 .... kr water: 0.0141707
..... cell 0 .... kr oil: 0.382393
ExecutionTime = 0.38 s  ClockTime = 0 s

Time = 5.06135e+06

diagonal:  Solving for water.alpha, Initial residual = 0, Final residual = 0, No Iterations 0
water saturation: Min = 0.25 Max = 0.275586
DICPCG:  Solving for p, Initial residual = 1.12689e-05, Final residual = 8.61169e-22, No Iterations 1
time step continuity errors : sum local = 5.96454e-07, global = 5.96442e-07, cumulative = 5.12099e-05
Coats Number mean: 1.15898e-05 max: 1.16071e-05
deltaT = 59644.2
..... cell 0 .... kr water: 0.014283
..... cell 0 .... kr oil: 0.381959
ExecutionTime = 0.38 s  ClockTime = 0 s

Time = 5.12099e+06

diagonal:  Solving for water.alpha, Initial residual = 0, Final residual = 0, No Iterations 0
water saturation: Min = 0.25 Max = 0.275884
DICPCG:  Solving for p, Initial residual = 1.13005e-05, Final residual = 4.7362e-21, No Iterations 1
time step continuity errors : sum local = 5.96456e-07, global = 5.9644e-07, cumulative = 5.18064e-05
Coats Number mean: 1.15904e-05 max: 1.16071e-05
deltaT = 59644.2
..... cell 0 .... kr water: 0.0143958
..... cell 0 .... kr oil: 0.381525
ExecutionTime = 0.38 s  ClockTime = 0 s

Time = 5.18064e+06

diagonal:  Solving for water.alpha, Initial residual = 0, Final residual = 0, No Iterations 0
water saturation: Min = 0.25 Max = 0.276182
DICPCG:  Solving for p, Initial residual = 1.13097e-05, Final residual = 1.12322e-20, No Iterations 1
time step continuity errors : sum local = 5.96457e-07, global = 5.96443e-07, cumulative = 5.24028e-05
Coats Number mean: 1.1591e-05 max: 1.16072e-05
deltaT = 59644.2
..... cell 0 .... kr water: 0.0145091
..... cell 0 .... kr oil: 0.381091
ExecutionTime = 0.39 s  ClockTime = 0 s

Time = 5.24028e+06

diagonal:  Solving for water.alpha, Initial residual = 0, Final residual = 0, No Iterations 0
water saturation: Min = 0.25 Max = 0.276479
DICPCG:  Solving for p, Initial residual = 1.13096e-05, Final residual = 1.76301e-20, No Iterations 1
time step continuity errors : sum local = 5.96455e-07, global = 5.96437e-07, cumulative = 5.29992e-05
Coats Number mean: 1.15915e-05 max: 1.16073e-05
deltaT = 59644.2
..... cell 0 .... kr water: 0.0146228
..... cell 0 .... kr oil: 0.380658
ExecutionTime = 0.39 s  ClockTime = 0 s

Time = 5.29993e+06

diagonal:  Solving for water.alpha, Initial residual = 0, Final residual = 0, No Iterations 0
water saturation: Min = 0.25 Max = 0.276777
DICPCG:  Solving for p, Initial residual = 1.12935e-05, Final residual = 9.54491e-21, No Iterations 1
time step continuity errors : sum local = 5.96455e-07, global = 5.96441e-07, cumulative = 5.35957e-05
Coats Number mean: 1.15921e-05 max: 1.16073e-05
deltaT = 59644.2
..... cell 0 .... kr water: 0.0147369
..... cell 0 .... kr oil: 0.380225
ExecutionTime = 0.39 s  ClockTime = 0 s

Time = 5.35957e+06

diagonal:  Solving for water.alpha, Initial residual = 0, Final residual = 0, No Iterations 0
water saturation: Min = 0.25 Max = 0.277075
DICPCG:  Solving for p, Initial residual = 1.13083e-05, Final residual = 9.47506e-21, No Iterations 1
time step continuity errors : sum local = 5.96457e-07, global = 5.96442e-07, cumulative = 5.41921e-05
Coats Number mean: 1.15927e-05 max: 1.16074e-05
deltaT = 59644.2
..... cell 0 .... kr water: 0.0148515
..... cell 0 .... kr oil: 0.379792
ExecutionTime = 0.4 s  ClockTime = 0 s

Time = 5.41921e+06

diagonal:  Solving for water.alpha, Initial residual = 0, Final residual = 0, No Iterations 0
water saturation: Min = 0.25 Max = 0.277373
DICPCG:  Solving for p, Initial residual = 1.13286e-05, Final residual = 3.68054e-21, No Iterations 1
time step continuity errors : sum local = 5.96456e-07, global = 5.96442e-07, cumulative = 5.47886e-05
Coats Number mean: 1.15933e-05 max: 1.16075e-05
deltaT = 59644.2
..... cell 0 .... kr water: 0.0149665
..... cell 0 .... kr oil: 0.37936
ExecutionTime = 0.4 s  ClockTime = 0 s

Time = 5.47886e+06

diagonal:  Solving for water.alpha, Initial residual = 0, Final residual = 0, No Iterations 0
water saturation: Min = 0.25 Max = 0.277671
DICPCG:  Solving for p, Initial residual = 1.13342e-05, Final residual = 1.18478e-20, No Iterations 1
time step continuity errors : sum local = 5.96457e-07, global = 5.96441e-07, cumulative = 5.5385e-05
Coats Number mean: 1.15938e-05 max: 1.16075e-05
deltaT = 59644.2
..... cell 0 .... kr water: 0.0150819
..... cell 0 .... kr oil: 0.378927
ExecutionTime = 0.4 s  ClockTime = 0 s

Time = 5.5385e+06

diagonal:  Solving for water.alpha, Initial residual = 0, Final residual = 0, No Iterations 0
water saturation: Min = 0.25 Max = 0.277969
DICPCG:  Solving for p, Initial residual = 1.13413e-05, Final residual = 7.46294e-21, No Iterations 1
time step continuity errors : sum local = 5.96455e-07, global = 5.96443e-07, cumulative = 5.59815e-05
Coats Number mean: 1.15944e-05 max: 1.16076e-05
deltaT = 59644.2
..... cell 0 .... kr water: 0.0151978
..... cell 0 .... kr oil: 0.378495
ExecutionTime = 0.41 s  ClockTime = 0 s

Time = 5.59815e+06

diagonal:  Solving for water.alpha, Initial residual = 0, Final residual = 0, No Iterations 0
water saturation: Min = 0.25 Max = 0.278267
DICPCG:  Solving for p, Initial residual = 1.13518e-05, Final residual = 6.91152e-21, No Iterations 1
time step continuity errors : sum local = 5.96456e-07, global = 5.9644e-07, cumulative = 5.65779e-05
Coats Number mean: 1.1595e-05 max: 1.16076e-05
deltaT = 59644.2
..... cell 0 .... kr water: 0.0153142
..... cell 0 .... kr oil: 0.378063
ExecutionTime = 0.41 s  ClockTime = 0 s

Time = 5.65779e+06

diagonal:  Solving for water.alpha, Initial residual = 0, Final residual = 0, No Iterations 0
water saturation: Min = 0.25 Max = 0.278565
DICPCG:  Solving for p, Initial residual = 1.13455e-05, Final residual = 8.35332e-21, No Iterations 1
time step continuity errors : sum local = 5.96456e-07, global = 5.96442e-07, cumulative = 5.71743e-05
Coats Number mean: 1.15956e-05 max: 1.16077e-05
deltaT = 59644.2
..... cell 0 .... kr water: 0.015431
..... cell 0 .... kr oil: 0.377632
ExecutionTime = 0.41 s  ClockTime = 0 s

Time = 5.71743e+06

diagonal:  Solving for water.alpha, Initial residual = 0, Final residual = 0, No Iterations 0
water saturation: Min = 0.25 Max = 0.278862
DICPCG:  Solving for p, Initial residual = 1.13504e-05, Final residual = 4.027e-21, No Iterations 1
time step continuity errors : sum local = 5.96454e-07, global = 5.96443e-07, cumulative = 5.77708e-05
Coats Number mean: 1.15962e-05 max: 1.16078e-05
deltaT = 59644.2
..... cell 0 .... kr water: 0.0155482
..... cell 0 .... kr oil: 0.377201
ExecutionTime = 0.42 s  ClockTime = 0 s

Time = 5.77708e+06

diagonal:  Solving for water.alpha, Initial residual = 0, Final residual = 0, No Iterations 0
water saturation: Min = 0.25 Max = 0.27916
DICPCG:  Solving for p, Initial residual = 1.13645e-05, Final residual = 2.99776e-21, No Iterations 1
time step continuity errors : sum local = 5.96454e-07, global = 5.96444e-07, cumulative = 5.83672e-05
Coats Number mean: 1.15968e-05 max: 1.16079e-05
deltaT = 59644.2
..... cell 0 .... kr water: 0.0156659
..... cell 0 .... kr oil: 0.37677
ExecutionTime = 0.42 s  ClockTime = 0 s

Time = 5.83672e+06

diagonal:  Solving for water.alpha, Initial residual = 0, Final residual = 0, No Iterations 0
water saturation: Min = 0.25 Max = 0.279458
DICPCG:  Solving for p, Initial residual = 1.13518e-05, Final residual = 1.21166e-20, No Iterations 1
time step continuity errors : sum local = 5.96457e-07, global = 5.96441e-07, cumulative = 5.89637e-05
Coats Number mean: 1.15974e-05 max: 1.16079e-05
deltaT = 59644.2
..... cell 0 .... kr water: 0.015784
..... cell 0 .... kr oil: 0.376339
ExecutionTime = 0.42 s  ClockTime = 0 s

Time = 5.89637e+06

diagonal:  Solving for water.alpha, Initial residual = 0, Final residual = 0, No Iterations 0
water saturation: Min = 0.25 Max = 0.279756
DICPCG:  Solving for p, Initial residual = 1.13941e-05, Final residual = 4.51437e-21, No Iterations 1
time step continuity errors : sum local = 5.96456e-07, global = 5.96442e-07, cumulative = 5.95601e-05
Coats Number mean: 1.1598e-05 max: 1.1608e-05
deltaT = 59644.2
..... cell 0 .... kr water: 0.0159025
..... cell 0 .... kr oil: 0.375908
ExecutionTime = 0.43 s  ClockTime = 0 s

Time = 5.95601e+06

diagonal:  Solving for water.alpha, Initial residual = 0, Final residual = 0, No Iterations 0
water saturation: Min = 0.25 Max = 0.280054
DICPCG:  Solving for p, Initial residual = 1.13617e-05, Final residual = 1.36037e-20, No Iterations 1
time step continuity errors : sum local = 5.96455e-07, global = 5.96444e-07, cumulative = 6.01565e-05
Coats Number mean: 1.15986e-05 max: 1.16081e-05
deltaT = 59644.2
..... cell 0 .... kr water: 0.0160215
..... cell 0 .... kr oil: 0.375478
ExecutionTime = 0.43 s  ClockTime = 0 s

Time = 6.01566e+06

diagonal:  Solving for water.alpha, Initial residual = 0, Final residual = 0, No Iterations 0
water saturation: Min = 0.25 Max = 0.280352
DICPCG:  Solving for p, Initial residual = 1.1406e-05, Final residual = 1.44634e-20, No Iterations 1
time step continuity errors : sum local = 5.96457e-07, global = 5.9644e-07, cumulative = 6.0753e-05
Coats Number mean: 1.15991e-05 max: 1.16081e-05
deltaT = 59644.2
..... cell 0 .... kr water: 0.016141
..... cell 0 .... kr oil: 0.375048
ExecutionTime = 0.43 s  ClockTime = 0 s

Time = 6.0753e+06

diagonal:  Solving for water.alpha, Initial residual = 0, Final residual = 0, No Iterations 0
water saturation: Min = 0.25 Max = 0.280649
DICPCG:  Solving for p, Initial residual = 1.13765e-05, Final residual = 1.22422e-20, No Iterations 1
time step continuity errors : sum local = 5.96456e-07, global = 5.96443e-07, cumulative = 6.13494e-05
Coats Number mean: 1.15997e-05 max: 1.16082e-05
deltaT = 59644.2
..... cell 0 .... kr water: 0.0162608
..... cell 0 .... kr oil: 0.374618
ExecutionTime = 0.43 s  ClockTime = 0 s

Time = 6.13494e+06

diagonal:  Solving for water.alpha, Initial residual = 0, Final residual = 0, No Iterations 0
water saturation: Min = 0.25 Max = 0.280947
DICPCG:  Solving for p, Initial residual = 1.13729e-05, Final residual = 9.88692e-21, No Iterations 1
time step continuity errors : sum local = 5.96456e-07, global = 5.96444e-07, cumulative = 6.19459e-05
Coats Number mean: 1.16004e-05 max: 1.16083e-05
deltaT = 59644.2
..... cell 0 .... kr water: 0.0163812
..... cell 0 .... kr oil: 0.374189
ExecutionTime = 0.44 s  ClockTime = 0 s

Time = 6.19459e+06

diagonal:  Solving for water.alpha, Initial residual = 0, Final residual = 0, No Iterations 0
water saturation: Min = 0.25 Max = 0.281245
DICPCG:  Solving for p, Initial residual = 1.13968e-05, Final residual = 1.38256e-20, No Iterations 1
time step continuity errors : sum local = 5.96457e-07, global = 5.9644e-07, cumulative = 6.25423e-05
Coats Number mean: 1.16009e-05 max: 1.16084e-05
deltaT = 59644.2
..... cell 0 .... kr water: 0.0165019
..... cell 0 .... kr oil: 0.373759
ExecutionTime = 0.44 s  ClockTime = 0 s

Time = 6.25423e+06

diagonal:  Solving for water.alpha, Initial residual = 0, Final residual = 0, No Iterations 0
water saturation: Min = 0.25 Max = 0.281543
DICPCG:  Solving for p, Initial residual = 1.14327e-05, Final residual = 3.68834e-21, No Iterations 1
time step continuity errors : sum local = 5.96456e-07, global = 5.96441e-07, cumulative = 6.31388e-05
Coats Number mean: 1.16015e-05 max: 1.16084e-05
deltaT = 59644.2
..... cell 0 .... kr water: 0.0166231
..... cell 0 .... kr oil: 0.37333
ExecutionTime = 0.44 s  ClockTime = 0 s

Time = 6.31388e+06

diagonal:  Solving for water.alpha, Initial residual = 0, Final residual = 0, No Iterations 0
water saturation: Min = 0.25 Max = 0.281841
DICPCG:  Solving for p, Initial residual = 1.1399e-05, Final residual = 4.09321e-21, No Iterations 1
time step continuity errors : sum local = 5.96455e-07, global = 5.96441e-07, cumulative = 6.37352e-05
Coats Number mean: 1.16022e-05 max: 1.16085e-05
deltaT = 59644.2
..... cell 0 .... kr water: 0.0167448
..... cell 0 .... kr oil: 0.372901
ExecutionTime = 0.45 s  ClockTime = 0 s

Time = 6.37352e+06

diagonal:  Solving for water.alpha, Initial residual = 0, Final residual = 0, No Iterations 0
water saturation: Min = 0.25 Max = 0.282139
DICPCG:  Solving for p, Initial residual = 1.1387e-05, Final residual = 5.32023e-21, No Iterations 1
time step continuity errors : sum local = 5.96456e-07, global = 5.96441e-07, cumulative = 6.43316e-05
Coats Number mean: 1.16028e-05 max: 1.16086e-05
deltaT = 59644.2
..... cell 0 .... kr water: 0.0168669
..... cell 0 .... kr oil: 0.372473
ExecutionTime = 0.45 s  ClockTime = 0 s

Time = 6.43317e+06

diagonal:  Solving for water.alpha, Initial residual = 0, Final residual = 0, No Iterations 0
water saturation: Min = 0.25 Max = 0.282436
DICPCG:  Solving for p, Initial residual = 1.14355e-05, Final residual = 2.59083e-21, No Iterations 1
time step continuity errors : sum local = 5.96456e-07, global = 5.96443e-07, cumulative = 6.49281e-05
Coats Number mean: 1.16034e-05 max: 1.16087e-05
deltaT = 59644.2
..... cell 0 .... kr water: 0.0169894
..... cell 0 .... kr oil: 0.372045
ExecutionTime = 0.45 s  ClockTime = 0 s

Time = 6.49281e+06

diagonal:  Solving for water.alpha, Initial residual = 0, Final residual = 0, No Iterations 0
water saturation: Min = 0.25 Max = 0.282734
DICPCG:  Solving for p, Initial residual = 1.14123e-05, Final residual = 2.20188e-21, No Iterations 1
time step continuity errors : sum local = 5.96456e-07, global = 5.96442e-07, cumulative = 6.55245e-05
Coats Number mean: 1.1604e-05 max: 1.16088e-05
deltaT = 59644.2
..... cell 0 .... kr water: 0.0171124
..... cell 0 .... kr oil: 0.371617
ExecutionTime = 0.46 s  ClockTime = 0 s

Time = 6.55245e+06

diagonal:  Solving for water.alpha, Initial residual = 0, Final residual = 0, No Iterations 0
water saturation: Min = 0.25 Max = 0.283032
DICPCG:  Solving for p, Initial residual = 1.14207e-05, Final residual = 2.32622e-21, No Iterations 1
time step continuity errors : sum local = 5.96455e-07, global = 5.96443e-07, cumulative = 6.6121e-05
Coats Number mean: 1.16046e-05 max: 1.16088e-05
deltaT = 59644.2
..... cell 0 .... kr water: 0.0172358
..... cell 0 .... kr oil: 0.371189
ExecutionTime = 0.46 s  ClockTime = 0 s

Time = 6.6121e+06

diagonal:  Solving for water.alpha, Initial residual = 0, Final residual = 0, No Iterations 0
water saturation: Min = 0.25 Max = 0.28333
DICPCG:  Solving for p, Initial residual = 1.14432e-05, Final residual = 5.39223e-22, No Iterations 1
time step continuity errors : sum local = 5.96457e-07, global = 5.96442e-07, cumulative = 6.67174e-05
Coats Number mean: 1.16052e-05 max: 1.16427e-05
deltaT = 59644.2
..... cell 0 .... kr water: 0.0173596
..... cell 0 .... kr oil: 0.370761
ExecutionTime = 0.46 s  ClockTime = 0 s

Time = 6.67174e+06

diagonal:  Solving for water.alpha, Initial residual = 0, Final residual = 0, No Iterations 0
water saturation: Min = 0.25 Max = 0.283628
DICPCG:  Solving for p, Initial residual = 1.14411e-05, Final residual = 3.38842e-21, No Iterations 1
time step continuity errors : sum local = 5.96454e-07, global = 5.96441e-07, cumulative = 6.73139e-05
Coats Number mean: 1.16058e-05 max: 1.17043e-05
deltaT = 59644.2
..... cell 0 .... kr water: 0.0174839
..... cell 0 .... kr oil: 0.370334
ExecutionTime = 0.47 s  ClockTime = 0 s

Time = 6.73139e+06

diagonal:  Solving for water.alpha, Initial residual = 0, Final residual = 0, No Iterations 0
water saturation: Min = 0.25 Max = 0.283925
DICPCG:  Solving for p, Initial residual = 1.14327e-05, Final residual = 1.72795e-21, No Iterations 1
time step continuity errors : sum local = 5.96456e-07, global = 5.96442e-07, cumulative = 6.79103e-05
Coats Number mean: 1.16064e-05 max: 1.1766e-05
deltaT = 59644.2
..... cell 0 .... kr water: 0.0176087
..... cell 0 .... kr oil: 0.369907
ExecutionTime = 0.47 s  ClockTime = 0 s

Time = 6.79103e+06

diagonal:  Solving for water.alpha, Initial residual = 0, Final residual = 0, No Iterations 0
water saturation: Min = 0.25 Max = 0.284223
DICPCG:  Solving for p, Initial residual = 1.14482e-05, Final residual = 2.67112e-21, No Iterations 1
time step continuity errors : sum local = 5.96457e-07, global = 5.96442e-07, cumulative = 6.85067e-05
Coats Number mean: 1.16071e-05 max: 1.1828e-05
deltaT = 59644.2
..... cell 0 .... kr water: 0.0177339
..... cell 0 .... kr oil: 0.36948
ExecutionTime = 0.47 s  ClockTime = 0 s

Time = 6.85067e+06

diagonal:  Solving for water.alpha, Initial residual = 0, Final residual = 0, No Iterations 0
[...]
water saturation: Min = 0.25 Max = 0.783841
DICPCG:  Solving for p, Initial residual = 1.27477e-05, Final residual = 4.4437e-21, No Iterations 1
time step continuity errors : sum local = 6.04212e-07, global = 6.04195e-07, cumulative = 0.00300225
Coats Number mean: 6.50095e-05 max: 0.00260444
deltaT = 60419.6
..... cell 0 .... kr water: 0.852175
..... cell 0 .... kr oil: 0.000362671
ExecutionTime = 16.11 s  ClockTime = 17 s

Time = 3.00225e+08

diagonal:  Solving for water.alpha, Initial residual = 0, Final residual = 0, No Iterations 0
water saturation: Min = 0.25 Max = 0.783845
DICPCG:  Solving for p, Initial residual = 1.27401e-05, Final residual = 1.0061e-20, No Iterations 1
time step continuity errors : sum local = 6.0421e-07, global = 6.04198e-07, cumulative = 0.00300285
Coats Number mean: 6.50445e-05 max: 0.00260891
deltaT = 60419.6
..... cell 0 .... kr water: 0.852187
..... cell 0 .... kr oil: 0.000362481
ExecutionTime = 16.11 s  ClockTime = 17 s

Time = 3.00285e+08

diagonal:  Solving for water.alpha, Initial residual = 0, Final residual = 0, No Iterations 0
water saturation: Min = 0.25 Max = 0.783849
DICPCG:  Solving for p, Initial residual = 1.27226e-05, Final residual = 1.50211e-20, No Iterations 1
time step continuity errors : sum local = 6.0421e-07, global = 6.04192e-07, cumulative = 0.00300346
Coats Number mean: 6.50794e-05 max: 0.00261337
deltaT = 60419.6
..... cell 0 .... kr water: 0.8522
..... cell 0 .... kr oil: 0.000362292
ExecutionTime = 16.11 s  ClockTime = 17 s

Time = 3.00346e+08

diagonal:  Solving for water.alpha, Initial residual = 0, Final residual = 0, No Iterations 0
water saturation: Min = 0.25 Max = 0.783853
DICPCG:  Solving for p, Initial residual = 1.26733e-05, Final residual = 7.1428e-21, No Iterations 1
time step continuity errors : sum local = 6.0421e-07, global = 6.04194e-07, cumulative = 0.00300406
Coats Number mean: 6.51143e-05 max: 0.00261782
deltaT = 60419.6
..... cell 0 .... kr water: 0.852212
..... cell 0 .... kr oil: 0.000362102
ExecutionTime = 16.12 s  ClockTime = 17 s

Time = 3.00406e+08

diagonal:  Solving for water.alpha, Initial residual = 0, Final residual = 0, No Iterations 0
water saturation: Min = 0.25 Max = 0.783858
DICPCG:  Solving for p, Initial residual = 1.26754e-05, Final residual = 5.40732e-21, No Iterations 1
time step continuity errors : sum local = 6.04208e-07, global = 6.04195e-07, cumulative = 0.00300467
Coats Number mean: 6.51492e-05 max: 0.00262227
deltaT = 60419.6
..... cell 0 .... kr water: 0.852224
..... cell 0 .... kr oil: 0.000361913
ExecutionTime = 16.12 s  ClockTime = 17 s

Time = 3.00467e+08

diagonal:  Solving for water.alpha, Initial residual = 0, Final residual = 0, No Iterations 0
water saturation: Min = 0.25 Max = 0.783862
DICPCG:  Solving for p, Initial residual = 1.26535e-05, Final residual = 7.00377e-21, No Iterations 1
time step continuity errors : sum local = 6.0421e-07, global = 6.04196e-07, cumulative = 0.00300527
Coats Number mean: 6.51841e-05 max: 0.00262672
deltaT = 60419.6
..... cell 0 .... kr water: 0.852237
..... cell 0 .... kr oil: 0.000361724
ExecutionTime = 16.12 s  ClockTime = 17 s

Time = 3.00527e+08

diagonal:  Solving for water.alpha, Initial residual = 0, Final residual = 0, No Iterations 0
water saturation: Min = 0.25 Max = 0.783866
DICPCG:  Solving for p, Initial residual = 1.26372e-05, Final residual = 5.07e-21, No Iterations 1
time step continuity errors : sum local = 6.0421e-07, global = 6.04196e-07, cumulative = 0.00300587
Coats Number mean: 6.52189e-05 max: 0.00263116
deltaT = 60419.6
..... cell 0 .... kr water: 0.852249
..... cell 0 .... kr oil: 0.000361535
ExecutionTime = 16.13 s  ClockTime = 17 s

Time = 3.00587e+08

diagonal:  Solving for water.alpha, Initial residual = 0, Final residual = 0, No Iterations 0
water saturation: Min = 0.25 Max = 0.78387
DICPCG:  Solving for p, Initial residual = 1.25945e-05, Final residual = 4.58247e-21, No Iterations 1
time step continuity errors : sum local = 6.04209e-07, global = 6.04194e-07, cumulative = 0.00300648
Coats Number mean: 6.52537e-05 max: 0.0026356
deltaT = 60419.6
..... cell 0 .... kr water: 0.852261
..... cell 0 .... kr oil: 0.000361346
ExecutionTime = 16.13 s  ClockTime = 17 s

Time = 3.00648e+08

diagonal:  Solving for water.alpha, Initial residual = 0, Final residual = 0, No Iterations 0
water saturation: Min = 0.25 Max = 0.783874
DICPCG:  Solving for p, Initial residual = 1.25989e-05, Final residual = 7.90378e-21, No Iterations 1
time step continuity errors : sum local = 6.04209e-07, global = 6.04195e-07, cumulative = 0.00300708
Coats Number mean: 6.52885e-05 max: 0.00264004
deltaT = 60419.6
..... cell 0 .... kr water: 0.852273
..... cell 0 .... kr oil: 0.000361158
ExecutionTime = 16.13 s  ClockTime = 17 s

Time = 3.00708e+08

diagonal:  Solving for water.alpha, Initial residual = 0, Final residual = 0, No Iterations 0
water saturation: Min = 0.25 Max = 0.783879
DICPCG:  Solving for p, Initial residual = 1.2559e-05, Final residual = 7.04359e-21, No Iterations 1
time step continuity errors : sum local = 6.04211e-07, global = 6.04195e-07, cumulative = 0.00300769
Coats Number mean: 6.53232e-05 max: 0.00264447
deltaT = 60419.6
..... cell 0 .... kr water: 0.852286
..... cell 0 .... kr oil: 0.000360969
ExecutionTime = 16.14 s  ClockTime = 17 s

Time = 3.00769e+08

diagonal:  Solving for water.alpha, Initial residual = 0, Final residual = 0, No Iterations 0
water saturation: Min = 0.25 Max = 0.783883
DICPCG:  Solving for p, Initial residual = 1.25603e-05, Final residual = 1.22937e-20, No Iterations 1
time step continuity errors : sum local = 6.04209e-07, global = 6.04199e-07, cumulative = 0.00300829
Coats Number mean: 6.53579e-05 max: 0.00264889
deltaT = 60419.6
..... cell 0 .... kr water: 0.852298
..... cell 0 .... kr oil: 0.000360781
ExecutionTime = 16.14 s  ClockTime = 17 s

Time = 3.00829e+08

diagonal:  Solving for water.alpha, Initial residual = 0, Final residual = 0, No Iterations 0
water saturation: Min = 0.25 Max = 0.783887
DICPCG:  Solving for p, Initial residual = 1.2532e-05, Final residual = 8.02397e-21, No Iterations 1
time step continuity errors : sum local = 6.0421e-07, global = 6.04197e-07, cumulative = 0.0030089
Coats Number mean: 6.53925e-05 max: 0.00265332
deltaT = 60419.6
..... cell 0 .... kr water: 0.85231
..... cell 0 .... kr oil: 0.000360593
ExecutionTime = 16.14 s  ClockTime = 17 s

Time = 3.0089e+08

diagonal:  Solving for water.alpha, Initial residual = 0, Final residual = 0, No Iterations 0
water saturation: Min = 0.25 Max = 0.783891
DICPCG:  Solving for p, Initial residual = 1.25266e-05, Final residual = 9.16487e-21, No Iterations 1
time step continuity errors : sum local = 6.04211e-07, global = 6.04198e-07, cumulative = 0.0030095
Coats Number mean: 6.54271e-05 max: 0.00265773
deltaT = 60419.6
..... cell 0 .... kr water: 0.852323
..... cell 0 .... kr oil: 0.000360405
ExecutionTime = 16.15 s  ClockTime = 17 s

Time = 3.0095e+08

diagonal:  Solving for water.alpha, Initial residual = 0, Final residual = 0, No Iterations 0
water saturation: Min = 0.25 Max = 0.783895
DICPCG:  Solving for p, Initial residual = 1.25007e-05, Final residual = 1.69444e-20, No Iterations 1
time step continuity errors : sum local = 6.04209e-07, global = 6.04195e-07, cumulative = 0.0030101
Coats Number mean: 6.54617e-05 max: 0.00266214
deltaT = 60419.6
..... cell 0 .... kr water: 0.852335
..... cell 0 .... kr oil: 0.000360217
ExecutionTime = 16.15 s  ClockTime = 17 s

Time = 3.0101e+08

diagonal:  Solving for water.alpha, Initial residual = 0, Final residual = 0, No Iterations 0
water saturation: Min = 0.25 Max = 0.7839
DICPCG:  Solving for p, Initial residual = 1.24659e-05, Final residual = 6.51519e-21, No Iterations 1
time step continuity errors : sum local = 6.04209e-07, global = 6.04195e-07, cumulative = 0.00301071
Coats Number mean: 6.54962e-05 max: 0.00266655
deltaT = 60419.6
..... cell 0 .... kr water: 0.852347
..... cell 0 .... kr oil: 0.000360029
ExecutionTime = 16.15 s  ClockTime = 17 s

Time = 3.01071e+08

diagonal:  Solving for water.alpha, Initial residual = 0, Final residual = 0, No Iterations 0
water saturation: Min = 0.25 Max = 0.783904
DICPCG:  Solving for p, Initial residual = 1.24647e-05, Final residual = 4.88459e-21, No Iterations 1
time step continuity errors : sum local = 6.04209e-07, global = 6.04195e-07, cumulative = 0.00301131
Coats Number mean: 6.55307e-05 max: 0.00267095
deltaT = 60419.6
..... cell 0 .... kr water: 0.852359
..... cell 0 .... kr oil: 0.000359842
ExecutionTime = 16.15 s  ClockTime = 17 s

Time = 3.01131e+08

diagonal:  Solving for water.alpha, Initial residual = 0, Final residual = 0, No Iterations 0
water saturation: Min = 0.25 Max = 0.783908
DICPCG:  Solving for p, Initial residual = 1.24511e-05, Final residual = 7.01519e-21, No Iterations 1
time step continuity errors : sum local = 6.04211e-07, global = 6.04195e-07, cumulative = 0.00301192
Coats Number mean: 6.55651e-05 max: 0.00267535
deltaT = 60419.6
..... cell 0 .... kr water: 0.852372
..... cell 0 .... kr oil: 0.000359654
ExecutionTime = 16.16 s  ClockTime = 17 s

Time = 3.01192e+08

diagonal:  Solving for water.alpha, Initial residual = 0, Final residual = 0, No Iterations 0
water saturation: Min = 0.25 Max = 0.783912
DICPCG:  Solving for p, Initial residual = 1.24175e-05, Final residual = 1.1455e-20, No Iterations 1
time step continuity errors : sum local = 6.04209e-07, global = 6.04197e-07, cumulative = 0.00301252
Coats Number mean: 6.55996e-05 max: 0.00267974
deltaT = 60419.6
..... cell 0 .... kr water: 0.852384
..... cell 0 .... kr oil: 0.000359467
ExecutionTime = 16.16 s  ClockTime = 17 s

Time = 3.01252e+08

diagonal:  Solving for water.alpha, Initial residual = 0, Final residual = 0, No Iterations 0
water saturation: Min = 0.25 Max = 0.783916
DICPCG:  Solving for p, Initial residual = 1.23875e-05, Final residual = 1.50888e-20, No Iterations 1
time step continuity errors : sum local = 6.0421e-07, global = 6.04194e-07, cumulative = 0.00301312
Coats Number mean: 6.56339e-05 max: 0.00268413
deltaT = 60419.6
..... cell 0 .... kr water: 0.852396
..... cell 0 .... kr oil: 0.00035928
ExecutionTime = 16.16 s  ClockTime = 17 s

Time = 3.01312e+08

diagonal:  Solving for water.alpha, Initial residual = 0, Final residual = 0, No Iterations 0
water saturation: Min = 0.25 Max = 0.783921
DICPCG:  Solving for p, Initial residual = 1.23884e-05, Final residual = 3.37618e-21, No Iterations 1
time step continuity errors : sum local = 6.04211e-07, global = 6.04196e-07, cumulative = 0.00301373
Coats Number mean: 6.56682e-05 max: 0.00268852
deltaT = 60419.6
..... cell 0 .... kr water: 0.852408
..... cell 0 .... kr oil: 0.000359093
ExecutionTime = 16.17 s  ClockTime = 17 s

Time = 3.01373e+08

diagonal:  Solving for water.alpha, Initial residual = 0, Final residual = 0, No Iterations 0
water saturation: Min = 0.25 Max = 0.783925
DICPCG:  Solving for p, Initial residual = 1.23625e-05, Final residual = 6.87949e-21, No Iterations 1
time step continuity errors : sum local = 6.0421e-07, global = 6.04197e-07, cumulative = 0.00301433
Coats Number mean: 6.57025e-05 max: 0.00269289
deltaT = 60419.6
..... cell 0 .... kr water: 0.85242
..... cell 0 .... kr oil: 0.000358906
ExecutionTime = 16.17 s  ClockTime = 17 s

Time = 3.01433e+08

diagonal:  Solving for water.alpha, Initial residual = 0, Final residual = 0, No Iterations 0
water saturation: Min = 0.25 Max = 0.783929
DICPCG:  Solving for p, Initial residual = 1.23448e-05, Final residual = 8.26849e-21, No Iterations 1
time step continuity errors : sum local = 6.04209e-07, global = 6.04195e-07, cumulative = 0.00301494
Coats Number mean: 6.57368e-05 max: 0.00269727
deltaT = 60419.6
..... cell 0 .... kr water: 0.852433
..... cell 0 .... kr oil: 0.000358719
ExecutionTime = 16.17 s  ClockTime = 17 s

Time = 3.01494e+08

diagonal:  Solving for water.alpha, Initial residual = 0, Final residual = 0, No Iterations 0
water saturation: Min = 0.25 Max = 0.783933
DICPCG:  Solving for p, Initial residual = 1.23615e-05, Final residual = 1.02989e-20, No Iterations 1
time step continuity errors : sum local = 6.04211e-07, global = 6.04195e-07, cumulative = 0.00301554
Coats Number mean: 6.5771e-05 max: 0.00270163
deltaT = 60419.6
..... cell 0 .... kr water: 0.852445
..... cell 0 .... kr oil: 0.000358533
ExecutionTime = 16.18 s  ClockTime = 17 s

Time = 3.01554e+08

diagonal:  Solving for water.alpha, Initial residual = 0, Final residual = 0, No Iterations 0
water saturation: Min = 0.25 Max = 0.783937
DICPCG:  Solving for p, Initial residual = 1.23203e-05, Final residual = 2.47109e-21, No Iterations 1
time step continuity errors : sum local = 6.0421e-07, global = 6.04196e-07, cumulative = 0.00301615
Coats Number mean: 6.58052e-05 max: 0.002706
deltaT = 60419.6
..... cell 0 .... kr water: 0.852457
..... cell 0 .... kr oil: 0.000358347
ExecutionTime = 16.18 s  ClockTime = 17 s

Time = 3.01615e+08

diagonal:  Solving for water.alpha, Initial residual = 0, Final residual = 0, No Iterations 0
water saturation: Min = 0.25 Max = 0.783942
DICPCG:  Solving for p, Initial residual = 1.22921e-05, Final residual = 1.51249e-20, No Iterations 1
time step continuity errors : sum local = 6.04211e-07, global = 6.04193e-07, cumulative = 0.00301675
Coats Number mean: 6.58392e-05 max: 0.00271035
deltaT = 60419.6
..... cell 0 .... kr water: 0.852469
..... cell 0 .... kr oil: 0.00035816
ExecutionTime = 16.18 s  ClockTime = 17 s

Time = 3.01675e+08

diagonal:  Solving for water.alpha, Initial residual = 0, Final residual = 0, No Iterations 0
water saturation: Min = 0.25 Max = 0.783946
DICPCG:  Solving for p, Initial residual = 1.22702e-05, Final residual = 1.51845e-20, No Iterations 1
time step continuity errors : sum local = 6.04209e-07, global = 6.04198e-07, cumulative = 0.00301735
Coats Number mean: 6.58734e-05 max: 0.00271471
deltaT = 60419.6
..... cell 0 .... kr water: 0.852481
..... cell 0 .... kr oil: 0.000357974
ExecutionTime = 16.19 s  ClockTime = 17 s

Time = 3.01735e+08

diagonal:  Solving for water.alpha, Initial residual = 0, Final residual = 0, No Iterations 0
water saturation: Min = 0.25 Max = 0.78395
DICPCG:  Solving for p, Initial residual = 1.22586e-05, Final residual = 2.80942e-21, No Iterations 1
time step continuity errors : sum local = 6.04212e-07, global = 6.04195e-07, cumulative = 0.00301796
Coats Number mean: 6.59074e-05 max: 0.00271905
deltaT = 60419.6
..... cell 0 .... kr water: 0.852494
..... cell 0 .... kr oil: 0.000357788
ExecutionTime = 16.19 s  ClockTime = 17 s

Time = 3.01796e+08

diagonal:  Solving for water.alpha, Initial residual = 0, Final residual = 0, No Iterations 0
water saturation: Min = 0.25 Max = 0.783954
DICPCG:  Solving for p, Initial residual = 1.22704e-05, Final residual = 1.34252e-20, No Iterations 1
time step continuity errors : sum local = 6.04211e-07, global = 6.04194e-07, cumulative = 0.00301856
Coats Number mean: 6.59413e-05 max: 0.0027234
deltaT = 60419.6
..... cell 0 .... kr water: 0.852506
..... cell 0 .... kr oil: 0.000357602
ExecutionTime = 16.19 s  ClockTime = 17 s

Time = 3.01856e+08

diagonal:  Solving for water.alpha, Initial residual = 0, Final residual = 0, No Iterations 0
water saturation: Min = 0.25 Max = 0.783958
DICPCG:  Solving for p, Initial residual = 1.22164e-05, Final residual = 1.16659e-20, No Iterations 1
time step continuity errors : sum local = 6.04211e-07, global = 6.04196e-07, cumulative = 0.00301917
Coats Number mean: 6.59753e-05 max: 0.00272773
deltaT = 60419.6
..... cell 0 .... kr water: 0.852518
..... cell 0 .... kr oil: 0.000357417
ExecutionTime = 16.19 s  ClockTime = 17 s

Time = 3.01917e+08

diagonal:  Solving for water.alpha, Initial residual = 0, Final residual = 0, No Iterations 0
water saturation: Min = 0.25 Max = 0.783962
DICPCG:  Solving for p, Initial residual = 1.21957e-05, Final residual = 3.36914e-21, No Iterations 1
time step continuity errors : sum local = 6.04208e-07, global = 6.04197e-07, cumulative = 0.00301977
Coats Number mean: 6.60092e-05 max: 0.00273206
deltaT = 60419.6
..... cell 0 .... kr water: 0.85253
..... cell 0 .... kr oil: 0.000357231
ExecutionTime = 16.2 s  ClockTime = 17 s

Time = 3.01977e+08

diagonal:  Solving for water.alpha, Initial residual = 0, Final residual = 0, No Iterations 0
water saturation: Min = 0.25 Max = 0.783967
DICPCG:  Solving for p, Initial residual = 1.2152e-05, Final residual = 1.8302e-20, No Iterations 1
time step continuity errors : sum local = 6.04209e-07, global = 6.04193e-07, cumulative = 0.00302038
Coats Number mean: 6.6043e-05 max: 0.00273639
deltaT = 60419.6
..... cell 0 .... kr water: 0.852542
..... cell 0 .... kr oil: 0.000357046
ExecutionTime = 16.2 s  ClockTime = 17 s

Time = 3.02037e+08

diagonal:  Solving for water.alpha, Initial residual = 0, Final residual = 0, No Iterations 0
water saturation: Min = 0.25 Max = 0.783971
DICPCG:  Solving for p, Initial residual = 1.21532e-05, Final residual = 2.1615e-21, No Iterations 1
time step continuity errors : sum local = 6.0421e-07, global = 6.04193e-07, cumulative = 0.00302098
Coats Number mean: 6.60768e-05 max: 0.00274071
deltaT = 60419.6
..... cell 0 .... kr water: 0.852554
..... cell 0 .... kr oil: 0.000356861
ExecutionTime = 16.2 s  ClockTime = 17 s

Time = 3.02098e+08

diagonal:  Solving for water.alpha, Initial residual = 0, Final residual = 0, No Iterations 0
water saturation: Min = 0.25 Max = 0.783975
DICPCG:  Solving for p, Initial residual = 1.21198e-05, Final residual = 6.43641e-21, No Iterations 1
time step continuity errors : sum local = 6.04211e-07, global = 6.04197e-07, cumulative = 0.00302158
Coats Number mean: 6.61106e-05 max: 0.00274502
deltaT = 60419.6
..... cell 0 .... kr water: 0.852566
..... cell 0 .... kr oil: 0.000356676
ExecutionTime = 16.2 s  ClockTime = 17 s

Time = 3.02158e+08

diagonal:  Solving for water.alpha, Initial residual = 0, Final residual = 0, No Iterations 0
water saturation: Min = 0.25 Max = 0.783979
DICPCG:  Solving for p, Initial residual = 1.21137e-05, Final residual = 3.88262e-21, No Iterations 1
time step continuity errors : sum local = 6.04208e-07, global = 6.04194e-07, cumulative = 0.00302219
Coats Number mean: 6.61443e-05 max: 0.00274933
deltaT = 60419.6
..... cell 0 .... kr water: 0.852579
..... cell 0 .... kr oil: 0.000356491
ExecutionTime = 16.21 s  ClockTime = 17 s

Time = 3.02219e+08

diagonal:  Solving for water.alpha, Initial residual = 0, Final residual = 0, No Iterations 0
water saturation: Min = 0.25 Max = 0.783983
DICPCG:  Solving for p, Initial residual = 1.21068e-05, Final residual = 1.02579e-20, No Iterations 1
time step continuity errors : sum local = 6.04211e-07, global = 6.04197e-07, cumulative = 0.00302279
Coats Number mean: 6.6178e-05 max: 0.00275363
deltaT = 60419.6
..... cell 0 .... kr water: 0.852591
..... cell 0 .... kr oil: 0.000356306
ExecutionTime = 16.21 s  ClockTime = 17 s

Time = 3.02279e+08

diagonal:  Solving for water.alpha, Initial residual = 0, Final residual = 0, No Iterations 0
water saturation: Min = 0.25 Max = 0.783987
DICPCG:  Solving for p, Initial residual = 1.20845e-05, Final residual = 1.19599e-20, No Iterations 1
time step continuity errors : sum local = 6.04211e-07, global = 6.04194e-07, cumulative = 0.0030234
Coats Number mean: 6.62115e-05 max: 0.00275793
deltaT = 60419.6
..... cell 0 .... kr water: 0.852603
..... cell 0 .... kr oil: 0.000356121
ExecutionTime = 16.21 s  ClockTime = 17 s

Time = 3.0234e+08

diagonal:  Solving for water.alpha, Initial residual = 0, Final residual = 0, No Iterations 0
water saturation: Min = 0.25 Max = 0.783991
DICPCG:  Solving for p, Initial residual = 1.20647e-05, Final residual = 1.19851e-20, No Iterations 1
time step continuity errors : sum local = 6.0421e-07, global = 6.04196e-07, cumulative = 0.003024
Coats Number mean: 6.62451e-05 max: 0.00276222
deltaT = 60419.6
..... cell 0 .... kr water: 0.852615
..... cell 0 .... kr oil: 0.000355937
ExecutionTime = 16.22 s  ClockTime = 17 s

End

