/*---------------------------------------------------------------------------*\
| =========                 |                                                 |
| \\      /  F ield         | OpenFOAM: The Open Source CFD Toolbox           |
|  \\    /   O peration     | Version:  4.1                                   |
|   \\  /    A nd           | Web:      www.OpenFOAM.org                      |
|    \\/     M anipulation  |                                                 |
\*---------------------------------------------------------------------------*/
Build  : 4.1
Exec   : impesFoam
Date   : Feb 27 2019
Time   : 18:12:21
Host   : "elwardi"
PID    : 26541
Case   : /home/elwardi/MasterThesis/reservoir-simulator/tutorials/impesFoam/TanejaDr/fiveSpot08
nProcs : 1
sigFpe : Enabling floating point exception trapping (FOAM_SIGFPE).
fileModificationChecking : Monitoring run-time modified files using timeStampMaster
allowSystemOperations : Allowing user-supplied system call operations

// * * * * * * * * * * * * * * * * * * * * * * * * * * * * * * * * * * * * * //
Create time

Using #calcEntry at line 28 in file "/home/elwardi/MasterThesis/reservoir-simulator/tutorials/impesFoam/TanejaDr/fiveSpot08/system/controlDict"
Using #codeStream with "/home/elwardi/MasterThesis/reservoir-simulator/tutorials/impesFoam/TanejaDr/fiveSpot08/dynamicCode/platforms/linux64GccDPInt32Opt/lib/libcodeStream_033dbd752947219024abb850bca21c37bded607c.so"
Create mesh for time = 0


Reading g
Reading field p

Reading transportProperties

Selecting relativePermeability model: BrooksCorey

Reading field K

Reading field U

Reading/calculating face flux field phi

Selecting Capillary Pressure model:  none

Selecting well model : PeacemanWellModel

Reading Wells
Updating Started
Wells Data: 16
PROD0 : production , (45.5 45.5 0.5) , PROD0_flowRate [0 3 -1 0 0 0 0] 0.001 , 1(292) , 320
INJE0 : injection , (-45.5 -45.5 0.5) , INJE0_flowRate [0 3 -1 0 0 0 0] 0.001 , 1(198) , 320

Starting time loop

Coats Number mean: 0 max: 0
deltaT = 0.0012
Time = 0.0012

diagonal:  Solving for water.alpha, Initial residual = 0, Final residual = 0, No Iterations 0
Saturation w  Min = 0.1601 Max = 0.160101
DICPCG:  Solving for p, Initial residual = 1, Final residual = 8.06939e-13, No Iterations 111
time step continuity errors : sum local = 2.4e-10, global = 1.46367e-26, cumulative = 1.46367e-26
ExecutionTime = 0.07 s  ClockTime = 0 s

Coats Number mean: 4.0666e-17 max: 5.62179e-16
deltaT = 0.00144
Time = 0.00264

diagonal:  Solving for water.alpha, Initial residual = 0, Final residual = 0, No Iterations 0
Saturation w  Min = 0.1601 Max = 0.160101
DICPCG:  Solving for p, Initial residual = 0.0457009, Final residual = 7.65091e-13, No Iterations 102
time step continuity errors : sum local = 2.88e-10, global = -8.91411e-26, cumulative = -7.45044e-26
ExecutionTime = 0.08 s  ClockTime = 0 s

Coats Number mean: 4.88227e-17 max: 6.84389e-16
deltaT = 0.001728
Time = 0.004368

diagonal:  Solving for water.alpha, Initial residual = 0, Final residual = 0, No Iterations 0
Saturation w  Min = 0.1601 Max = 0.160102
DICPCG:  Solving for p, Initial residual = 0.00120341, Final residual = 8.92275e-13, No Iterations 94
time step continuity errors : sum local = 3.456e-10, global = -1.24806e-25, cumulative = -1.9931e-25
ExecutionTime = 0.09 s  ClockTime = 0 s

Coats Number mean: 5.85935e-17 max: 8.35453e-16
deltaT = 0.0020736
Time = 0.0064416

diagonal:  Solving for water.alpha, Initial residual = 0, Final residual = 0, No Iterations 0
Saturation w  Min = 0.1601 Max = 0.160103
DICPCG:  Solving for p, Initial residual = 3.6499e-05, Final residual = 7.47933e-13, No Iterations 86
time step continuity errors : sum local = 4.1472e-10, global = 1.5449e-25, cumulative = -4.48202e-26
ExecutionTime = 0.1 s  ClockTime = 0 s

Coats Number mean: 7.03204e-17 max: 1.02316e-15
deltaT = 0.00248832
Time = 0.00892992

diagonal:  Solving for water.alpha, Initial residual = 0, Final residual = 0, No Iterations 0
Saturation w  Min = 0.1601 Max = 0.160105
DICPCG:  Solving for p, Initial residual = 3.64928e-06, Final residual = 7.88488e-13, No Iterations 74
time step continuity errors : sum local = 4.97664e-10, global = -1.14918e-25, cumulative = -1.59739e-25
ExecutionTime = 0.11 s  ClockTime = 0 s

Coats Number mean: 8.43965e-17 max: 1.25782e-15
deltaT = 0.00298598
Time = 0.0119159

diagonal:  Solving for water.alpha, Initial residual = 0, Final residual = 0, No Iterations 0
Saturation w  Min = 0.1601 Max = 0.160106
DICPCG:  Solving for p, Initial residual = 3.26837e-06, Final residual = 8.90968e-13, No Iterations 70
time step continuity errors : sum local = 5.97197e-10, global = -1.06595e-25, cumulative = -2.66334e-25
ExecutionTime = 0.12 s  ClockTime = 0 s

Coats Number mean: 1.01293e-16 max: 1.5532e-15
deltaT = 0.00358318
Time = 0.0154991

diagonal:  Solving for water.alpha, Initial residual = 0, Final residual = 0, No Iterations 0
Saturation w  Min = 0.1601 Max = 0.160108
DICPCG:  Solving for p, Initial residual = 3.89092e-06, Final residual = 8.03894e-13, No Iterations 72
time step continuity errors : sum local = 7.16636e-10, global = -1.0903e-25, cumulative = -3.75364e-25
ExecutionTime = 0.13 s  ClockTime = 0 s

Coats Number mean: 1.21578e-16 max: 1.92792e-15
deltaT = 0.00429982
Time = 0.0197989

diagonal:  Solving for water.alpha, Initial residual = 0, Final residual = 0, No Iterations 0
Saturation w  Min = 0.1601 Max = 0.16011
DICPCG:  Solving for p, Initial residual = 4.66834e-06, Final residual = 8.87369e-13, No Iterations 72
time step continuity errors : sum local = 8.59963e-10, global = -4.83487e-26, cumulative = -4.23713e-25
ExecutionTime = 0.14 s  ClockTime = 0 s

Coats Number mean: 1.45931e-16 max: 2.40751e-15
deltaT = 0.00515978
Time = 0.0249587

diagonal:  Solving for water.alpha, Initial residual = 0, Final residual = 0, No Iterations 0
Saturation w  Min = 0.1601 Max = 0.160113
DICPCG:  Solving for p, Initial residual = 5.602e-06, Final residual = 8.15699e-13, No Iterations 73
time step continuity errors : sum local = 1.03196e-09, global = -3.66849e-25, cumulative = -7.90562e-25
ExecutionTime = 0.15 s  ClockTime = 0 s

Coats Number mean: 1.75172e-16 max: 3.02733e-15
deltaT = 0.00619174
Time = 0.0311504

diagonal:  Solving for water.alpha, Initial residual = 0, Final residual = 0, No Iterations 0
Saturation w  Min = 0.1601 Max = 0.160116
DICPCG:  Solving for p, Initial residual = 6.72242e-06, Final residual = 9.80876e-13, No Iterations 73
time step continuity errors : sum local = 1.23835e-09, global = -4.5619e-25, cumulative = -1.24675e-24
ExecutionTime = 0.16 s  ClockTime = 0 s

Coats Number mean: 2.10288e-16 max: 3.83711e-15
deltaT = 0.00743008
Time = 0.0385805

diagonal:  Solving for water.alpha, Initial residual = 0, Final residual = 0, No Iterations 0
Saturation w  Min = 0.1601 Max = 0.160119
DICPCG:  Solving for p, Initial residual = 8.06694e-06, Final residual = 6.502e-13, No Iterations 74
time step continuity errors : sum local = 1.48602e-09, global = 4.71827e-25, cumulative = -7.74925e-25
ExecutionTime = 0.17 s  ClockTime = 0 s

Coats Number mean: 2.52467e-16 max: 4.90761e-15
deltaT = 0.0089161
Time = 0.0474966

diagonal:  Solving for water.alpha, Initial residual = 0, Final residual = 0, No Iterations 0
Saturation w  Min = 0.1601 Max = 0.160124
DICPCG:  Solving for p, Initial residual = 9.68038e-06, Final residual = 7.67798e-13, No Iterations 74
time step continuity errors : sum local = 1.78322e-09, global = 9.60419e-25, cumulative = 1.85495e-25
ExecutionTime = 0.17 s  ClockTime = 0 s

Coats Number mean: 3.03142e-16 max: 6.34086e-15
deltaT = 0.0106993
Time = 0.0581959

diagonal:  Solving for water.alpha, Initial residual = 0, Final residual = 0, No Iterations 0
Saturation w  Min = 0.1601 Max = 0.160129
DICPCG:  Solving for p, Initial residual = 1.16165e-05, Final residual = 9.24771e-13, No Iterations 74
time step continuity errors : sum local = 2.13986e-09, global = -8.00022e-25, cumulative = -6.14527e-25
ExecutionTime = 0.18 s  ClockTime = 1 s

Coats Number mean: 3.64041e-16 max: 8.28599e-15
deltaT = 0.0128392
Time = 0.0710351

diagonal:  Solving for water.alpha, Initial residual = 0, Final residual = 0, No Iterations 0
Saturation w  Min = 0.1601 Max = 0.160136
DICPCG:  Solving for p, Initial residual = 1.39399e-05, Final residual = 9.2633e-13, No Iterations 75
time step continuity errors : sum local = 2.56784e-09, global = -3.61244e-25, cumulative = -9.75771e-25
ExecutionTime = 0.19 s  ClockTime = 1 s

Coats Number mean: 4.37257e-16 max: 1.09637e-14
deltaT = 0.015407
Time = 0.0864421

diagonal:  Solving for water.alpha, Initial residual = 0, Final residual = 0, No Iterations 0
Saturation w  Min = 0.1601 Max = 0.160144
DICPCG:  Solving for p, Initial residual = 1.67281e-05, Final residual = 8.01214e-13, No Iterations 76
time step continuity errors : sum local = 3.0814e-09, global = -1.40219e-24, cumulative = -2.37796e-24
ExecutionTime = 0.2 s  ClockTime = 1 s

Coats Number mean: 5.25328e-16 max: 1.47051e-14
deltaT = 0.0184884
Time = 0.104931

diagonal:  Solving for water.alpha, Initial residual = 0, Final residual = 0, No Iterations 0
Saturation w  Min = 0.1601 Max = 0.160153
DICPCG:  Solving for p, Initial residual = 2.00739e-05, Final residual = 9.61481e-13, No Iterations 76
time step continuity errors : sum local = 3.69768e-09, global = -7.9914e-25, cumulative = -3.1771e-24
ExecutionTime = 0.21 s  ClockTime = 1 s

Coats Number mean: 6.3134e-16 max: 2.00127e-14
deltaT = 0.0221861
Time = 0.127117

diagonal:  Solving for water.alpha, Initial residual = 0, Final residual = 0, No Iterations 0
Saturation w  Min = 0.1601 Max = 0.160164
DICPCG:  Solving for p, Initial residual = 2.4089e-05, Final residual = 8.81867e-13, No Iterations 78
time step continuity errors : sum local = 4.43722e-09, global = -3.44575e-25, cumulative = -3.52167e-24
ExecutionTime = 0.22 s  ClockTime = 1 s

Coats Number mean: 7.59066e-16 max: 2.76592e-14
deltaT = 0.0266233
Time = 0.15374

diagonal:  Solving for water.alpha, Initial residual = 0, Final residual = 0, No Iterations 0
Saturation w  Min = 0.1601 Max = 0.160178
DICPCG:  Solving for p, Initial residual = 2.89072e-05, Final residual = 7.82175e-13, No Iterations 80
time step continuity errors : sum local = 5.32466e-09, global = 2.13595e-24, cumulative = -1.38572e-24
ExecutionTime = 0.23 s  ClockTime = 1 s

Coats Number mean: 9.13141e-16 max: 3.88463e-14
deltaT = 0.031948
Time = 0.185688

diagonal:  Solving for water.alpha, Initial residual = 0, Final residual = 0, No Iterations 0
Saturation w  Min = 0.1601 Max = 0.160194
DICPCG:  Solving for p, Initial residual = 3.46893e-05, Final residual = 9.14437e-13, No Iterations 80
time step continuity errors : sum local = 6.38959e-09, global = -1.36823e-24, cumulative = -2.75395e-24
ExecutionTime = 0.23 s  ClockTime = 1 s

Coats Number mean: 1.09931e-15 max: 5.54642e-14
deltaT = 0.0383376
Time = 0.224025

diagonal:  Solving for water.alpha, Initial residual = 0, Final residual = 0, No Iterations 0
Saturation w  Min = 0.1601 Max = 0.160213
DICPCG:  Solving for p, Initial residual = 4.16281e-05, Final residual = 7.25922e-13, No Iterations 81
time step continuity errors : sum local = 7.66751e-09, global = 3.36047e-24, cumulative = 6.06513e-25
ExecutionTime = 0.24 s  ClockTime = 1 s

Coats Number mean: 1.32475e-15 max: 8.05182e-14
deltaT = 0.046005
Time = 0.270031

diagonal:  Solving for water.alpha, Initial residual = 0, Final residual = 0, No Iterations 0
Saturation w  Min = 0.1601 Max = 0.160236
DICPCG:  Solving for p, Initial residual = 4.99551e-05, Final residual = 8.06077e-13, No Iterations 81
time step continuity errors : sum local = 9.20101e-09, global = 5.80054e-24, cumulative = 6.40705e-24
ExecutionTime = 0.25 s  ClockTime = 1 s

Coats Number mean: 1.59859e-15 max: 1.18833e-13
deltaT = 0.055206
Time = 0.325237

diagonal:  Solving for water.alpha, Initial residual = 0, Final residual = 0, No Iterations 0
Saturation w  Min = 0.1601 Max = 0.160264
DICPCG:  Solving for p, Initial residual = 5.9948e-05, Final residual = 9.839e-13, No Iterations 81
time step continuity errors : sum local = 1.10412e-08, global = 1.29807e-24, cumulative = 7.70512e-24
ExecutionTime = 0.26 s  ClockTime = 1 s

Coats Number mean: 1.93256e-15 max: 1.78226e-13
deltaT = 0.0662473
Time = 0.391484

diagonal:  Solving for water.alpha, Initial residual = 0, Final residual = 0, No Iterations 0
Saturation w  Min = 0.1601 Max = 0.160297
DICPCG:  Solving for p, Initial residual = 7.19404e-05, Final residual = 7.19469e-13, No Iterations 82
time step continuity errors : sum local = 1.32495e-08, global = -6.73539e-24, cumulative = 9.6973e-25
ExecutionTime = 0.27 s  ClockTime = 1 s

Coats Number mean: 2.34211e-15 max: 2.71471e-13
deltaT = 0.0794967
Time = 0.47098

diagonal:  Solving for water.alpha, Initial residual = 0, Final residual = 0, No Iterations 0
Saturation w  Min = 0.1601 Max = 0.160337
DICPCG:  Solving for p, Initial residual = 8.63325e-05, Final residual = 8.06717e-13, No Iterations 82
time step continuity errors : sum local = 1.58993e-08, global = 1.07054e-24, cumulative = 2.04027e-24
ExecutionTime = 0.28 s  ClockTime = 1 s

Coats Number mean: 2.84806e-15 max: 4.19597e-13
deltaT = 0.0953959
Time = 0.566376

diagonal:  Solving for water.alpha, Initial residual = 0, Final residual = 0, No Iterations 0
Saturation w  Min = 0.1601 Max = 0.160386
DICPCG:  Solving for p, Initial residual = 0.000103605, Final residual = 6.16411e-13, No Iterations 83
time step continuity errors : sum local = 1.90792e-08, global = 7.53619e-25, cumulative = 2.79389e-24
ExecutionTime = 0.3 s  ClockTime = 1 s

Coats Number mean: 3.47925e-15 max: 6.57467e-13
deltaT = 0.114475
Time = 0.680851

diagonal:  Solving for water.alpha, Initial residual = 0, Final residual = 0, No Iterations 0
Saturation w  Min = 0.1601 Max = 0.160443
DICPCG:  Solving for p, Initial residual = 0.000124334, Final residual = 7.15162e-13, No Iterations 83
time step continuity errors : sum local = 2.2895e-08, global = -3.19769e-24, cumulative = -4.03803e-25
ExecutionTime = 0.3 s  ClockTime = 1 s

Coats Number mean: 4.2768e-15 max: 1.04322e-12
deltaT = 0.13737
Time = 0.818221

diagonal:  Solving for water.alpha, Initial residual = 0, Final residual = 0, No Iterations 0
Saturation w  Min = 0.1601 Max = 0.160512
DICPCG:  Solving for p, Initial residual = 0.000149212, Final residual = 8.69039e-13, No Iterations 83
time step continuity errors : sum local = 2.7474e-08, global = 1.08975e-24, cumulative = 6.85951e-25
ExecutionTime = 0.31 s  ClockTime = 1 s

Coats Number mean: 5.30115e-15 max: 1.67433e-12
deltaT = 0.164844
Time = 0.983065

diagonal:  Solving for water.alpha, Initial residual = 0, Final residual = 0, No Iterations 0
Saturation w  Min = 0.1601 Max = 0.160596
DICPCG:  Solving for p, Initial residual = 0.000179072, Final residual = 7.9325e-13, No Iterations 84
time step continuity errors : sum local = 3.29687e-08, global = -2.1962e-23, cumulative = -2.1276e-23
ExecutionTime = 0.32 s  ClockTime = 1 s

Coats Number mean: 6.64371e-15 max: 2.71504e-12
deltaT = 0.197812
Time = 1.18088

diagonal:  Solving for water.alpha, Initial residual = 0, Final residual = 0, No Iterations 0
Saturation w  Min = 0.1601 Max = 0.160695
DICPCG:  Solving for p, Initial residual = 0.000214911, Final residual = 9.20442e-13, No Iterations 84
time step continuity errors : sum local = 3.95624e-08, global = 2.11955e-23, cumulative = -8.04999e-26
ExecutionTime = 0.33 s  ClockTime = 1 s

Coats Number mean: 8.4465e-15 max: 4.44317e-12
deltaT = 0.237374
Time = 1.41825

diagonal:  Solving for water.alpha, Initial residual = 0, Final residual = 0, No Iterations 0
Saturation w  Min = 0.1601 Max = 0.160815
DICPCG:  Solving for p, Initial residual = 0.000257929, Final residual = 8.20561e-13, No Iterations 85
time step continuity errors : sum local = 4.74749e-08, global = -5.90217e-24, cumulative = -5.98267e-24
ExecutionTime = 0.34 s  ClockTime = 1 s

Coats Number mean: 1.09353e-14 max: 7.33048e-12
deltaT = 0.284849
Time = 1.7031

diagonal:  Solving for water.alpha, Initial residual = 0, Final residual = 0, No Iterations 0
Saturation w  Min = 0.1601 Max = 0.160959
DICPCG:  Solving for p, Initial residual = 0.000309566, Final residual = 9.54673e-13, No Iterations 85
time step continuity errors : sum local = 5.69697e-08, global = -1.56373e-23, cumulative = -2.162e-23
ExecutionTime = 0.35 s  ClockTime = 1 s

Coats Number mean: 1.44759e-14 max: 1.21805e-11
deltaT = 0.341818
Time = 2.04492

diagonal:  Solving for water.alpha, Initial residual = 0, Final residual = 0, No Iterations 0
Saturation w  Min = 0.1601 Max = 0.161131
DICPCG:  Solving for p, Initial residual = 0.000371553, Final residual = 8.77081e-13, No Iterations 86
time step continuity errors : sum local = 6.83636e-08, global = 3.31192e-23, cumulative = 1.14992e-23
ExecutionTime = 0.36 s  ClockTime = 1 s

Coats Number mean: 1.96709e-14 max: 2.03661e-11
deltaT = 0.41018
Time = 2.4551

diagonal:  Solving for water.alpha, Initial residual = 0, Final residual = 0, No Iterations 0
Saturation w  Min = 0.1601 Max = 0.161338
DICPCG:  Solving for p, Initial residual = 0.00044597, Final residual = 7.07204e-13, No Iterations 87
time step continuity errors : sum local = 8.20361e-08, global = 1.89966e-23, cumulative = 3.04958e-23
ExecutionTime = 0.37 s  ClockTime = 1 s

Coats Number mean: 2.75245e-14 max: 3.4238e-11
deltaT = 0.492215
Time = 2.94731

diagonal:  Solving for water.alpha, Initial residual = 0, Final residual = 0, No Iterations 0
Saturation w  Min = 0.1601 Max = 0.161586
DICPCG:  Solving for p, Initial residual = 0.000535317, Final residual = 8.63011e-13, No Iterations 87
time step continuity errors : sum local = 9.8443e-08, global = 6.6275e-23, cumulative = 9.67709e-23
ExecutionTime = 0.38 s  ClockTime = 1 s

Coats Number mean: 3.97278e-14 max: 5.78317e-11
deltaT = 0.590656
Time = 3.53797

diagonal:  Solving for water.alpha, Initial residual = 0, Final residual = 0, No Iterations 0
Saturation w  Min = 0.1601 Max = 0.161884
DICPCG:  Solving for p, Initial residual = 0.000642601, Final residual = 6.99395e-13, No Iterations 88
time step continuity errors : sum local = 1.18131e-07, global = 1.17009e-23, cumulative = 1.08472e-22
ExecutionTime = 0.39 s  ClockTime = 1 s

Coats Number mean: 5.91496e-14 max: 9.80887e-11
deltaT = 0.708784
Time = 4.24675

diagonal:  Solving for water.alpha, Initial residual = 0, Final residual = 0, No Iterations 0
Saturation w  Min = 0.1601 Max = 0.162241
DICPCG:  Solving for p, Initial residual = 0.000771438, Final residual = 8.51919e-13, No Iterations 88
time step continuity errors : sum local = 1.41757e-07, global = -4.90309e-23, cumulative = 5.94409e-23
ExecutionTime = 0.4 s  ClockTime = 1 s

Coats Number mean: 9.0686e-14 max: 1.66973e-10
deltaT = 0.850536
Time = 5.09729

diagonal:  Solving for water.alpha, Initial residual = 0, Final residual = 0, No Iterations 0
Saturation w  Min = 0.1601 Max = 0.16267
DICPCG:  Solving for p, Initial residual = 0.000926185, Final residual = 5.87885e-13, No Iterations 89
time step continuity errors : sum local = 1.70107e-07, global = -2.80811e-23, cumulative = 3.13598e-23
ExecutionTime = 0.41 s  ClockTime = 1 s

Coats Number mean: 1.42734e-13 max: 2.85145e-10
deltaT = 1.02064
Time = 6.11793

diagonal:  Solving for water.alpha, Initial residual = 0, Final residual = 0, No Iterations 0
Saturation w  Min = 0.1601 Max = 0.163184
DICPCG:  Solving for p, Initial residual = 0.00111208, Final residual = 7.05425e-13, No Iterations 89
time step continuity errors : sum local = 2.04127e-07, global = 1.51438e-23, cumulative = 4.65036e-23
ExecutionTime = 0.42 s  ClockTime = 1 s

Coats Number mean: 2.29752e-13 max: 4.88352e-10
deltaT = 1.22475
Time = 7.34268

diagonal:  Solving for water.alpha, Initial residual = 0, Final residual = 0, No Iterations 0
Saturation w  Min = 0.1601 Max = 0.163802
DICPCG:  Solving for p, Initial residual = 0.00133545, Final residual = 8.4685e-13, No Iterations 89
time step continuity errors : sum local = 2.4495e-07, global = -6.3528e-23, cumulative = -1.70244e-23
ExecutionTime = 0.43 s  ClockTime = 1 s

Coats Number mean: 3.76716e-13 max: 8.38558e-10
deltaT = 1.46969
Time = 8.81237

diagonal:  Solving for water.alpha, Initial residual = 0, Final residual = 0, No Iterations 0
Saturation w  Min = 0.1601 Max = 0.164543
DICPCG:  Solving for p, Initial residual = 0.00160391, Final residual = 6.32075e-13, No Iterations 90
time step continuity errors : sum local = 2.93938e-07, global = -7.35526e-23, cumulative = -9.0577e-23
ExecutionTime = 0.44 s  ClockTime = 1 s

Coats Number mean: 6.26919e-13 max: 1.44342e-09
deltaT = 1.76359
Time = 10.576

diagonal:  Solving for water.alpha, Initial residual = 0, Final residual = 0, No Iterations 0
Saturation w  Min = 0.1601 Max = 0.165432
DICPCG:  Solving for p, Initial residual = 0.00192665, Final residual = 7.50738e-13, No Iterations 90
time step continuity errors : sum local = 3.52718e-07, global = -5.32149e-23, cumulative = -1.43792e-22
ExecutionTime = 0.44 s  ClockTime = 1 s

Coats Number mean: 1.05559e-12 max: 2.49033e-09
deltaT = 2.1163
Time = 12.6923

diagonal:  Solving for water.alpha, Initial residual = 0, Final residual = 0, No Iterations 0
Saturation w  Min = 0.1601 Max = 0.166499
DICPCG:  Solving for p, Initial residual = 0.00231484, Final residual = 8.99595e-13, No Iterations 90
time step continuity errors : sum local = 4.2326e-07, global = 1.69051e-22, cumulative = 2.5259e-23
ExecutionTime = 0.46 s  ClockTime = 1 s

Coats Number mean: 1.79396e-12 max: 4.30653e-09
deltaT = 2.53953
Time = 15.2318

diagonal:  Solving for water.alpha, Initial residual = 0, Final residual = 0, No Iterations 0
Saturation w  Min = 0.1601 Max = 0.167779
DICPCG:  Solving for p, Initial residual = 0.00278147, Final residual = 5.74972e-13, No Iterations 91
time step continuity errors : sum local = 5.07907e-07, global = -2.76117e-22, cumulative = -2.50857e-22
ExecutionTime = 0.46 s  ClockTime = 1 s

Coats Number mean: 3.0715e-12 max: 7.46468e-09
deltaT = 3.0474
Time = 18.2792

diagonal:  Solving for water.alpha, Initial residual = 0, Final residual = 0, No Iterations 0
Saturation w  Min = 0.1601 Max = 0.169315
DICPCG:  Solving for p, Initial residual = 0.00334305, Final residual = 6.91102e-13, No Iterations 91
time step continuity errors : sum local = 6.09481e-07, global = -4.64948e-23, cumulative = -2.97352e-22
ExecutionTime = 0.47 s  ClockTime = 1 s

Coats Number mean: 5.29102e-12 max: 1.29707e-08
deltaT = 3.65683
Time = 21.936

diagonal:  Solving for water.alpha, Initial residual = 0, Final residual = 0, No Iterations 0
Saturation w  Min = 0.1601 Max = 0.171159
DICPCG:  Solving for p, Initial residual = 0.00401929, Final residual = 8.31569e-13, No Iterations 91
time step continuity errors : sum local = 7.31367e-07, global = -3.87352e-22, cumulative = -6.84704e-22
ExecutionTime = 0.48 s  ClockTime = 1 s

Coats Number mean: 9.16248e-12 max: 2.2598e-08
deltaT = 4.38801
Time = 26.324

diagonal:  Solving for water.alpha, Initial residual = 0, Final residual = 0, No Iterations 0
Saturation w  Min = 0.1601 Max = 0.173371
DICPCG:  Solving for p, Initial residual = 0.00483405, Final residual = 9.99822e-13, No Iterations 91
time step continuity errors : sum local = 8.77603e-07, global = -2.06578e-22, cumulative = -8.91282e-22
ExecutionTime = 0.49 s  ClockTime = 1 s

Coats Number mean: 1.59424e-11 max: 3.94861e-08
deltaT = 5.2654
Time = 31.5894

diagonal:  Solving for water.alpha, Initial residual = 0, Final residual = 0, No Iterations 0
Saturation w  Min = 0.1601 Max = 0.176025
DICPCG:  Solving for p, Initial residual = 0.00581671, Final residual = 6.97163e-13, No Iterations 92
time step continuity errors : sum local = 1.05308e-06, global = -8.84328e-24, cumulative = -9.00125e-22
ExecutionTime = 0.5 s  ClockTime = 1 s

Coats Number mean: 2.78685e-11 max: 6.92274e-08
deltaT = 6.3181
Time = 37.9075

diagonal:  Solving for water.alpha, Initial residual = 0, Final residual = 0, No Iterations 0
Saturation w  Min = 0.1601 Max = 0.17921
DICPCG:  Solving for p, Initial residual = 0.00700291, Final residual = 8.41537e-13, No Iterations 92
time step continuity errors : sum local = 1.26362e-06, global = -1.48215e-22, cumulative = -1.04834e-21
ExecutionTime = 0.51 s  ClockTime = 1 s

Coats Number mean: 4.89487e-11 max: 1.21839e-07
deltaT = 7.58161
Time = 45.4891

diagonal:  Solving for water.alpha, Initial residual = 0, Final residual = 0, No Iterations 0
Saturation w  Min = 0.1601 Max = 0.183033
DICPCG:  Solving for p, Initial residual = 0.00843712, Final residual = 6.09361e-13, No Iterations 93
time step continuity errors : sum local = 1.51632e-06, global = 8.17705e-22, cumulative = -2.30636e-22
ExecutionTime = 0.52 s  ClockTime = 1 s

Coats Number mean: 8.64265e-11 max: 2.15427e-07
deltaT = 9.09761
Time = 54.5868

diagonal:  Solving for water.alpha, Initial residual = 0, Final residual = 0, No Iterations 0
Saturation w  Min = 0.1601 Max = 0.187619
DICPCG:  Solving for p, Initial residual = 0.0101732, Final residual = 7.45993e-13, No Iterations 93
time step continuity errors : sum local = 1.81952e-06, global = -6.18994e-22, cumulative = -8.4963e-22
ExecutionTime = 0.52 s  ClockTime = 1 s

Coats Number mean: 1.53493e-10 max: 3.82964e-07
deltaT = 10.916
Time = 65.5027

diagonal:  Solving for water.alpha, Initial residual = 0, Final residual = 0, No Iterations 0
Saturation w  Min = 0.1601 Max = 0.193122
DICPCG:  Solving for p, Initial residual = 0.0122779, Final residual = 8.85034e-13, No Iterations 93
time step continuity errors : sum local = 2.1832e-06, global = -1.5327e-22, cumulative = -1.0029e-21
ExecutionTime = 0.54 s  ClockTime = 1 s

Coats Number mean: 2.74434e-10 max: 6.85165e-07
deltaT = 13.0988
Time = 78.6016

diagonal:  Solving for water.alpha, Initial residual = 0, Final residual = 0, No Iterations 0
Saturation w  Min = 0.1601 Max = 0.199726
DICPCG:  Solving for p, Initial residual = 0.014837, Final residual = 8.2471e-13, No Iterations 94
time step continuity errors : sum local = 2.61977e-06, global = -1.10138e-21, cumulative = -2.10429e-21
ExecutionTime = 0.54 s  ClockTime = 1 s

Coats Number mean: 4.94681e-10 max: 1.2356e-06
deltaT = 15.7177
Time = 94.3192

diagonal:  Solving for water.alpha, Initial residual = 0, Final residual = 0, No Iterations 0
Saturation w  Min = 0.1601 Max = 0.20765
DICPCG:  Solving for p, Initial residual = 0.017955, Final residual = 9.58053e-13, No Iterations 94
time step continuity errors : sum local = 3.14353e-06, global = -1.58679e-22, cumulative = -2.26296e-21
ExecutionTime = 0.56 s  ClockTime = 1 s

Coats Number mean: 9.00333e-10 max: 2.24951e-06
deltaT = 18.8605
Time = 113.18

diagonal:  Solving for water.alpha, Initial residual = 0, Final residual = 0, No Iterations 0
Saturation w  Min = 0.1601 Max = 0.217158
DICPCG:  Solving for p, Initial residual = 0.0217676, Final residual = 7.40812e-13, No Iterations 95
time step continuity errors : sum local = 3.7721e-06, global = -1.39149e-21, cumulative = -3.65445e-21
ExecutionTime = 0.56 s  ClockTime = 1 s

Coats Number mean: 1.65814e-09 max: 4.14375e-06
deltaT = 22.6296
Time = 135.809

diagonal:  Solving for water.alpha, Initial residual = 0, Final residual = 0, No Iterations 0
Saturation w  Min = 0.1601 Max = 0.228566
DICPCG:  Solving for p, Initial residual = 0.0264448, Final residual = 8.20761e-13, No Iterations 95
time step continuity errors : sum local = 4.52593e-06, global = 1.9059e-21, cumulative = -1.74855e-21
ExecutionTime = 0.58 s  ClockTime = 1 s

Coats Number mean: 3.09804e-09 max: 7.74319e-06
deltaT = 27.1527
Time = 162.962

diagonal:  Solving for water.alpha, Initial residual = 0, Final residual = 0, No Iterations 0
Saturation w  Min = 0.1601 Max = 0.242254
DICPCG:  Solving for p, Initial residual = 0.0322134, Final residual = 6.11261e-13, No Iterations 96
time step continuity errors : sum local = 5.43054e-06, global = -6.05922e-22, cumulative = -2.35447e-21
ExecutionTime = 0.59 s  ClockTime = 1 s

Coats Number mean: 5.89378e-09 max: 1.47321e-05
deltaT = 32.5792
Time = 195.541

diagonal:  Solving for water.alpha, Initial residual = 0, Final residual = 0, No Iterations 0
Saturation w  Min = 0.1601 Max = 0.258678
DICPCG:  Solving for p, Initial residual = 0.0393681, Final residual = 7.4853e-13, No Iterations 96
time step continuity errors : sum local = 6.51583e-06, global = 2.43488e-22, cumulative = -2.11098e-21
ExecutionTime = 0.6 s  ClockTime = 1 s

Coats Number mean: 1.14689e-08 max: 2.86695e-05
deltaT = 39.0773
Time = 234.619

diagonal:  Solving for water.alpha, Initial residual = 0, Final residual = 0, No Iterations 0
Saturation w  Min = 0.1601 Max = 0.278377
DICPCG:  Solving for p, Initial residual = 0.0482916, Final residual = 9.13101e-13, No Iterations 96
time step continuity errors : sum local = 7.81545e-06, global = 6.09914e-22, cumulative = -1.50107e-21
ExecutionTime = 0.6 s  ClockTime = 1 s

Coats Number mean: 2.29584e-08 max: 5.73927e-05
deltaT = 46.88
Time = 281.499

diagonal:  Solving for water.alpha, Initial residual = 0, Final residual = 0, No Iterations 0
Saturation w  Min = 0.1601 Max = 0.302009
DICPCG:  Solving for p, Initial residual = 0.0595446, Final residual = 7.62272e-13, No Iterations 97
time step continuity errors : sum local = 9.37599e-06, global = -2.20657e-21, cumulative = -3.70764e-21
ExecutionTime = 0.62 s  ClockTime = 1 s

Coats Number mean: 4.77032e-08 max: 0.000119254
deltaT = 56.2498
Time = 337.748

diagonal:  Solving for water.alpha, Initial residual = 0, Final residual = 0, No Iterations 0
Saturation w  Min = 0.1601 Max = 0.330361
DICPCG:  Solving for p, Initial residual = 0.0738894, Final residual = 9.41877e-13, No Iterations 97
time step continuity errors : sum local = 1.125e-05, global = -3.61733e-22, cumulative = -4.06938e-21
ExecutionTime = 0.62 s  ClockTime = 1 s

Coats Number mean: 1.04098e-07 max: 0.000260241
deltaT = 67.4469
Time = 405.195

diagonal:  Solving for water.alpha, Initial residual = 0, Final residual = 0, No Iterations 0
Saturation w  Min = 0.1601 Max = 0.364351
DICPCG:  Solving for p, Initial residual = 0.0923461, Final residual = 7.71792e-13, No Iterations 98
time step continuity errors : sum local = 1.34894e-05, global = -1.57812e-21, cumulative = -5.6475e-21
ExecutionTime = 0.64 s  ClockTime = 1 s

Coats Number mean: 2.42332e-07 max: 0.000605826
deltaT = 80.8982
Time = 486.093

diagonal:  Solving for water.alpha, Initial residual = 0, Final residual = 0, No Iterations 0
Saturation w  Min = 0.1601 Max = 0.4051
DICPCG:  Solving for p, Initial residual = 0.116551, Final residual = 9.55759e-13, No Iterations 98
time step continuity errors : sum local = 1.61796e-05, global = -9.93055e-22, cumulative = -6.64055e-21
ExecutionTime = 0.65 s  ClockTime = 1 s

Coats Number mean: 6.17987e-07 max: 0.00154496
deltaT = 96.9683
Time = 583.062

diagonal:  Solving for water.alpha, Initial residual = 0, Final residual = 0, No Iterations 0
Saturation w  Min = 0.1601 Max = 0.453892
DICPCG:  Solving for p, Initial residual = 0.148702, Final residual = 7.03414e-13, No Iterations 99
time step continuity errors : sum local = 1.93937e-05, global = 8.95044e-21, cumulative = 2.30989e-21
ExecutionTime = 0.66 s  ClockTime = 1 s

Coats Number mean: 1.79418e-06 max: 0.00448544
deltaT = 116.283
Time = 699.345

diagonal:  Solving for water.alpha, Initial residual = 0, Final residual = 0, No Iterations 0
Saturation w  Min = 0.1601 Max = 0.512228
DICPCG:  Solving for p, Initial residual = 0.192046, Final residual = 8.87319e-13, No Iterations 99
time step continuity errors : sum local = 2.32566e-05, global = -6.37605e-22, cumulative = 1.67229e-21
ExecutionTime = 0.67 s  ClockTime = 1 s

Coats Number mean: 6.34239e-06 max: 0.015856
deltaT = 139.351
Time = 838.696

diagonal:  Solving for water.alpha, Initial residual = 0, Final residual = 0, No Iterations 0
Saturation w  Min = 0.1601 Max = 0.581461
DICPCG:  Solving for p, Initial residual = 0.249017, Final residual = 6.88104e-13, No Iterations 100
time step continuity errors : sum local = 2.78701e-05, global = -2.54826e-21, cumulative = -8.7597e-22
ExecutionTime = 0.68 s  ClockTime = 1 s

Coats Number mean: 3.01234e-05 max: 0.0753084
deltaT = 167.112
Time = 1005.81

diagonal:  Solving for water.alpha, Initial residual = 0, Final residual = 0, No Iterations 0
Saturation w  Min = 0.1601 Max = 0.661127
DICPCG:  Solving for p, Initial residual = 0.309338, Final residual = 8.92464e-13, No Iterations 100
time step continuity errors : sum local = 3.34224e-05, global = 9.61938e-21, cumulative = 8.74341e-21
ExecutionTime = 0.69 s  ClockTime = 1 s

Coats Number mean: 0.000184793 max: 0.461982
deltaT = 194.078
Time = 1199.89

diagonal:  Solving for water.alpha, Initial residual = 0, Final residual = 0, No Iterations 0
Saturation w  Min = 0.1601 Max = 0.732194
DICPCG:  Solving for p, Initial residual = 0.286585, Final residual = 9.62012e-13, No Iterations 100
time step continuity errors : sum local = 3.88155e-05, global = 3.3998e-21, cumulative = 1.21432e-20
ExecutionTime = 0.7 s  ClockTime = 1 s

Coats Number mean: 0.000275666 max: 0.689164
deltaT = 210.891
Time = 1410.78

diagonal:  Solving for water.alpha, Initial residual = 0, Final residual = 0, No Iterations 0
Saturation w  Min = 0.1601 Max = 0.750467
DICPCG:  Solving for p, Initial residual = 0.151898, Final residual = 7.5989e-13, No Iterations 101
time step continuity errors : sum local = 4.21783e-05, global = -2.95245e-21, cumulative = 9.19076e-21
ExecutionTime = 0.71 s  ClockTime = 1 s

Coats Number mean: 0.000178332 max: 0.445804
deltaT = 246.346
Time = 1657.12

diagonal:  Solving for water.alpha, Initial residual = 0, Final residual = 0, No Iterations 0
Saturation w  Min = 0.1601 Max = 0.758984
DICPCG:  Solving for p, Initial residual = 0.0396996, Final residual = 7.9123e-13, No Iterations 98
time step continuity errors : sum local = 4.92691e-05, global = -1.38275e-20, cumulative = -4.63674e-21
ExecutionTime = 0.72 s  ClockTime = 1 s

Coats Number mean: 0.000143783 max: 0.359316
deltaT = 295.271
Time = 1952.39

diagonal:  Solving for water.alpha, Initial residual = 0, Final residual = 0, No Iterations 0
Saturation w  Min = 0.1601 Max = 0.764716
DICPCG:  Solving for p, Initial residual = 0.0460155, Final residual = 7.13088e-13, No Iterations 98
time step continuity errors : sum local = 5.90543e-05, global = 1.92659e-21, cumulative = -2.71016e-21
ExecutionTime = 0.73 s  ClockTime = 1 s

Coats Number mean: 0.000126634 max: 0.316021
deltaT = 353.337
Time = 2305.73

diagonal:  Solving for water.alpha, Initial residual = 0, Final residual = 0, No Iterations 0
Saturation w  Min = 0.1601 Max = 0.769022
DICPCG:  Solving for p, Initial residual = 0.0576886, Final residual = 8.86139e-13, No Iterations 98
time step continuity errors : sum local = 7.06675e-05, global = -8.47781e-21, cumulative = -1.1188e-20
ExecutionTime = 0.74 s  ClockTime = 1 s

Coats Number mean: 0.000116008 max: 0.288009
deltaT = 422.584
Time = 2728.32

diagonal:  Solving for water.alpha, Initial residual = 0, Final residual = 0, No Iterations 0
Saturation w  Min = 0.1601 Max = 0.772463
DICPCG:  Solving for p, Initial residual = 0.0720367, Final residual = 7.32831e-13, No Iterations 99
time step continuity errors : sum local = 8.45169e-05, global = -8.48157e-21, cumulative = -1.96695e-20
ExecutionTime = 0.75 s  ClockTime = 1 s

Coats Number mean: 0.000110436 max: 0.26881
deltaT = 504.046
Time = 3232.36

diagonal:  Solving for water.alpha, Initial residual = 0, Final residual = 0, No Iterations 0
Saturation w  Min = 0.1601 Max = 0.775311
DICPCG:  Solving for p, Initial residual = 0.126912, Final residual = 9.21633e-13, No Iterations 100
time step continuity errors : sum local = 0.000100809, global = 2.84251e-20, cumulative = 8.75559e-21
ExecutionTime = 0.76 s  ClockTime = 1 s

Coats Number mean: 0.000113915 max: 0.254639
deltaT = 602.664
Time = 3835.03

diagonal:  Solving for water.alpha, Initial residual = 0, Final residual = 0, No Iterations 0
Saturation w  Min = 0.1601 Max = 0.777739
DICPCG:  Solving for p, Initial residual = 0.172565, Final residual = 6.64354e-13, No Iterations 101
time step continuity errors : sum local = 0.000120533, global = 3.13496e-20, cumulative = 4.01052e-20
ExecutionTime = 0.77 s  ClockTime = 1 s

Coats Number mean: 0.000163316 max: 0.244721
deltaT = 717.956
Time = 4552.98

diagonal:  Solving for water.alpha, Initial residual = 0, Final residual = 0, No Iterations 0
Saturation w  Min = 0.1601 Max = 0.77984
DICPCG:  Solving for p, Initial residual = 0.229679, Final residual = 7.72191e-13, No Iterations 101
time step continuity errors : sum local = 0.000143591, global = 4.93367e-20, cumulative = 8.94419e-20
ExecutionTime = 0.78 s  ClockTime = 1 s

Coats Number mean: 0.000639388 max: 0.602752
deltaT = 802.422
Time = 5355.4

diagonal:  Solving for water.alpha, Initial residual = 0, Final residual = 0, No Iterations 0
Saturation w  Min = 0.1601 Max = 0.781568
DICPCG:  Solving for p, Initial residual = 0.255763, Final residual = 7.09571e-13, No Iterations 101
time step continuity errors : sum local = 0.000160484, global = 1.06241e-19, cumulative = 1.95683e-19
ExecutionTime = 0.79 s  ClockTime = 1 s

Coats Number mean: 0.0019448 max: 1.65832
deltaT = 361.806
Time = 5717.21

diagonal:  Solving for water.alpha, Initial residual = 0, Final residual = 0, No Iterations 0
Saturation w  Min = 0.1601 Max = 0.782159
DICPCG:  Solving for p, Initial residual = 0.169985, Final residual = 7.57917e-13, No Iterations 100
time step continuity errors : sum local = 7.23612e-05, global = -1.64608e-20, cumulative = 1.79222e-19
ExecutionTime = 0.81 s  ClockTime = 1 s

Coats Number mean: 0.00102421 max: 0.642566
deltaT = 403.414
Time = 6120.62

diagonal:  Solving for water.alpha, Initial residual = 0, Final residual = 0, No Iterations 0
Saturation w  Min = 0.1601 Max = 0.782756
DICPCG:  Solving for p, Initial residual = 0.0724715, Final residual = 7.51731e-13, No Iterations 100
time step continuity errors : sum local = 8.06828e-05, global = 3.66639e-21, cumulative = 1.82888e-19
ExecutionTime = 0.81 s  ClockTime = 1 s

Coats Number mean: 0.00120015 max: 0.852201
deltaT = 353.654
Time = 6474.28

diagonal:  Solving for water.alpha, Initial residual = 0, Final residual = 0, No Iterations 0
Saturation w  Min = 0.1601 Max = 0.783227
DICPCG:  Solving for p, Initial residual = 0.0509179, Final residual = 9.6163e-13, No Iterations 99
time step continuity errors : sum local = 7.07307e-05, global = 2.69793e-20, cumulative = 2.09868e-19
ExecutionTime = 0.83 s  ClockTime = 1 s

Coats Number mean: 0.000940827 max: 0.682626
deltaT = 387.989
Time = 6862.27

diagonal:  Solving for water.alpha, Initial residual = 0, Final residual = 0, No Iterations 0
Saturation w  Min = 0.1601 Max = 0.783701
DICPCG:  Solving for p, Initial residual = 0.0376949, Final residual = 9.92056e-13, No Iterations 99
time step continuity errors : sum local = 7.75978e-05, global = -1.1906e-20, cumulative = 1.97962e-19
ExecutionTime = 0.84 s  ClockTime = 1 s

Coats Number mean: 0.000875252 max: 0.625146
deltaT = 432.27
Time = 7294.54

diagonal:  Solving for water.alpha, Initial residual = 0, Final residual = 0, No Iterations 0
Saturation w  Min = 0.1601 Max = 0.784185
DICPCG:  Solving for p, Initial residual = 0.0453585, Final residual = 6.36654e-13, No Iterations 100
time step continuity errors : sum local = 8.64541e-05, global = 3.18954e-20, cumulative = 2.29857e-19
ExecutionTime = 0.85 s  ClockTime = 1 s

Coats Number mean: 0.000818332 max: 0.569654
deltaT = 488.305
Time = 7782.84

diagonal:  Solving for water.alpha, Initial residual = 0, Final residual = 0, No Iterations 0
Saturation w  Min = 0.1601 Max = 0.784683
DICPCG:  Solving for p, Initial residual = 0.0561741, Final residual = 8.19909e-13, No Iterations 100
time step continuity errors : sum local = 9.76611e-05, global = -1.81788e-20, cumulative = 2.11678e-19
ExecutionTime = 0.86 s  ClockTime = 1 s

Coats Number mean: 0.000778044 max: 0.526882
deltaT = 557.568
Time = 8340.41

diagonal:  Solving for water.alpha, Initial residual = 0, Final residual = 0, No Iterations 0
Saturation w  Min = 0.1601 Max = 0.785199
DICPCG:  Solving for p, Initial residual = 0.0707116, Final residual = 6.56891e-13, No Iterations 101
time step continuity errors : sum local = 0.000111514, global = -1.6256e-20, cumulative = 1.95422e-19
ExecutionTime = 0.87 s  ClockTime = 1 s

Coats Number mean: 0.000753268 max: 0.495722
deltaT = 639.833
Time = 8980.24

diagonal:  Solving for water.alpha, Initial residual = 0, Final residual = 0, No Iterations 0
Saturation w  Min = 0.1601 Max = 0.785732
DICPCG:  Solving for p, Initial residual = 0.0899007, Final residual = 7.60743e-13, No Iterations 102
time step continuity errors : sum local = 0.000127967, global = 2.87442e-20, cumulative = 2.24167e-19
ExecutionTime = 0.88 s  ClockTime = 1 s

Coats Number mean: 0.000743703 max: 0.472351
deltaT = 737.331
Time = 9717.57

diagonal:  Solving for water.alpha, Initial residual = 0, Final residual = 0, No Iterations 0
Saturation w  Min = 0.1601 Max = 0.786281
DICPCG:  Solving for p, Initial residual = 0.113745, Final residual = 7.76188e-13, No Iterations 103
time step continuity errors : sum local = 0.000147466, global = 9.43842e-21, cumulative = 2.33605e-19
ExecutionTime = 0.89 s  ClockTime = 1 s

Coats Number mean: 0.000770995 max: 0.455565
deltaT = 852.027
Time = 10569.6

diagonal:  Solving for water.alpha, Initial residual = 0, Final residual = 0, No Iterations 0
Saturation w  Min = 0.1601 Max = 0.786843
DICPCG:  Solving for p, Initial residual = 0.139858, Final residual = 8.28712e-13, No Iterations 104
time step continuity errors : sum local = 0.000170405, global = 6.72214e-20, cumulative = 3.00826e-19
ExecutionTime = 0.9 s  ClockTime = 1 s

Coats Number mean: 0.000959746 max: 0.444737
deltaT = 984.81
Time = 11554.4

diagonal:  Solving for water.alpha, Initial residual = 0, Final residual = 0, No Iterations 0
Saturation w  Min = 0.1601 Max = 0.787415
DICPCG:  Solving for p, Initial residual = 0.157966, Final residual = 6.87109e-13, No Iterations 106
time step continuity errors : sum local = 0.000196962, global = 9.49907e-21, cumulative = 3.10325e-19
ExecutionTime = 0.91 s  ClockTime = 1 s

Coats Number mean: 0.00168837 max: 1.13416
deltaT = 650.831
Time = 12205.2

diagonal:  Solving for water.alpha, Initial residual = 0, Final residual = 0, No Iterations 0
Saturation w  Min = 0.1601 Max = 0.787745
DICPCG:  Solving for p, Initial residual = 0.137109, Final residual = 7.04881e-13, No Iterations 107
time step continuity errors : sum local = 0.000130166, global = -2.79454e-20, cumulative = 2.8238e-19
ExecutionTime = 0.92 s  ClockTime = 1 s

Coats Number mean: 0.00139375 max: 0.730258
deltaT = 668.421
Time = 12873.7

diagonal:  Solving for water.alpha, Initial residual = 0, Final residual = 0, No Iterations 0
Saturation w  Min = 0.1601 Max = 0.788058
DICPCG:  Solving for p, Initial residual = 0.119295, Final residual = 6.6907e-13, No Iterations 108
time step continuity errors : sum local = 0.000133684, global = -5.33646e-20, cumulative = 2.29015e-19
ExecutionTime = 0.93 s  ClockTime = 1 s

Coats Number mean: 0.00157175 max: 0.840814
deltaT = 592.954
Time = 13466.6

diagonal:  Solving for water.alpha, Initial residual = 0, Final residual = 0, No Iterations 0
Saturation w  Min = 0.1601 Max = 0.788314
DICPCG:  Solving for p, Initial residual = 0.0923421, Final residual = 7.33943e-13, No Iterations 108
time step continuity errors : sum local = 0.000118591, global = -2.47257e-20, cumulative = 2.0429e-19
ExecutionTime = 0.94 s  ClockTime = 1 s

Coats Number mean: 0.00152823 max: 0.701352
deltaT = 628.736
Time = 14095.4

diagonal:  Solving for water.alpha, Initial residual = 0, Final residual = 0, No Iterations 0
Saturation w  Min = 0.1601 Max = 0.788568
DICPCG:  Solving for p, Initial residual = 0.0813468, Final residual = 6.69563e-13, No Iterations 109
time step continuity errors : sum local = 0.000125747, global = -2.15104e-21, cumulative = 2.02139e-19
ExecutionTime = 0.95 s  ClockTime = 1 s

Coats Number mean: 0.00179685 max: 0.702016
deltaT = 669.487
Time = 14764.8

diagonal:  Solving for water.alpha, Initial residual = 0, Final residual = 0, No Iterations 0
Saturation w  Min = 0.1601 Max = 0.788821
DICPCG:  Solving for p, Initial residual = 0.0647805, Final residual = 6.16735e-13, No Iterations 108
time step continuity errors : sum local = 0.000133897, global = -9.57963e-20, cumulative = 1.06342e-19
ExecutionTime = 0.96 s  ClockTime = 1 s

Coats Number mean: 0.00195077 max: 0.842874
deltaT = 592.026
Time = 15356.9

diagonal:  Solving for water.alpha, Initial residual = 0, Final residual = 0, No Iterations 0
Saturation w  Min = 0.1601 Max = 0.78903
DICPCG:  Solving for p, Initial residual = 0.0646695, Final residual = 8.168e-13, No Iterations 105
time step continuity errors : sum local = 0.000118405, global = -2.48461e-20, cumulative = 8.14963e-20
ExecutionTime = 0.97 s  ClockTime = 1 s

Coats Number mean: 0.00165805 max: 0.787524
deltaT = 559.395
Time = 15916.3

diagonal:  Solving for water.alpha, Initial residual = 0, Final residual = 0, No Iterations 0
Saturation w  Min = 0.1601 Max = 0.789216
DICPCG:  Solving for p, Initial residual = 0.0652368, Final residual = 8.89709e-13, No Iterations 104
time step continuity errors : sum local = 0.000111879, global = 4.23326e-20, cumulative = 1.23829e-19
ExecutionTime = 0.98 s  ClockTime = 1 s

Coats Number mean: 0.00150501 max: 0.743299
deltaT = 563.87
Time = 16480.1

diagonal:  Solving for water.alpha, Initial residual = 0, Final residual = 0, No Iterations 0
Saturation w  Min = 0.1601 Max = 0.789395
DICPCG:  Solving for p, Initial residual = 0.0711302, Final residual = 9.45031e-13, No Iterations 104
time step continuity errors : sum local = 0.000112774, global = 2.07412e-20, cumulative = 1.4457e-19
ExecutionTime = 0.99 s  ClockTime = 1 s

Coats Number mean: 0.0014906 max: 0.737941
deltaT = 568.454
Time = 17048.6

diagonal:  Solving for water.alpha, Initial residual = 0, Final residual = 0, No Iterations 0
Saturation w  Min = 0.1601 Max = 0.789566
DICPCG:  Solving for p, Initial residual = 0.0818095, Final residual = 8.63124e-13, No Iterations 103
time step continuity errors : sum local = 0.000113691, global = 7.52847e-20, cumulative = 2.19855e-19
ExecutionTime = 1 s  ClockTime = 1 s

Coats Number mean: 0.0015374 max: 0.730311
deltaT = 582.785
Time = 17631.4

diagonal:  Solving for water.alpha, Initial residual = 0, Final residual = 0, No Iterations 0
Saturation w  Min = 0.1601 Max = 0.789732
DICPCG:  Solving for p, Initial residual = 0.0882094, Final residual = 7.18749e-13, No Iterations 104
time step continuity errors : sum local = 0.000116557, global = 5.96361e-20, cumulative = 2.79491e-19
ExecutionTime = 1.01 s  ClockTime = 1 s

Coats Number mean: 0.00167708 max: 0.731914
deltaT = 592.833
Time = 18224.2

diagonal:  Solving for water.alpha, Initial residual = 0, Final residual = 0, No Iterations 0
Saturation w  Min = 0.1601 Max = 0.789894
DICPCG:  Solving for p, Initial residual = 0.0938128, Final residual = 7.6768e-13, No Iterations 105
time step continuity errors : sum local = 0.000118567, global = 1.45435e-20, cumulative = 2.94034e-19
ExecutionTime = 1.03 s  ClockTime = 1 s

Coats Number mean: 0.00182195 max: 0.71869
deltaT = 614.196
Time = 18838.4

diagonal:  Solving for water.alpha, Initial residual = 0, Final residual = 0, No Iterations 0
Saturation w  Min = 0.1601 Max = 0.790053
DICPCG:  Solving for p, Initial residual = 0.0990034, Final residual = 7.20126e-13, No Iterations 106
time step continuity errors : sum local = 0.000122839, global = -1.65909e-21, cumulative = 2.92375e-19
ExecutionTime = 1.03 s  ClockTime = 1 s

Coats Number mean: 0.00200325 max: 0.70018
deltaT = 655.938
Time = 19494.3

diagonal:  Solving for water.alpha, Initial residual = 0, Final residual = 0, No Iterations 0
Saturation w  Min = 0.1601 Max = 0.790215
DICPCG:  Solving for p, Initial residual = 0.0995712, Final residual = 7.86732e-13, No Iterations 107
time step continuity errors : sum local = 0.000131188, global = 5.16275e-21, cumulative = 2.97538e-19
ExecutionTime = 1.05 s  ClockTime = 1 s

Coats Number mean: 0.00226988 max: 0.688023
deltaT = 711.762
Time = 20206.1

diagonal:  Solving for water.alpha, Initial residual = 0, Final residual = 0, No Iterations 0
Saturation w  Min = 0.1601 Max = 0.790383
DICPCG:  Solving for p, Initial residual = 0.100315, Final residual = 7.57579e-13, No Iterations 106
time step continuity errors : sum local = 0.000142352, global = -3.38125e-20, cumulative = 2.63726e-19
ExecutionTime = 1.06 s  ClockTime = 1 s

Coats Number mean: 0.00244358 max: 0.887488
deltaT = 596.341
Time = 20802.4

diagonal:  Solving for water.alpha, Initial residual = 0, Final residual = 0, No Iterations 0
Saturation w  Min = 0.1601 Max = 0.790516
DICPCG:  Solving for p, Initial residual = 0.0884341, Final residual = 9.08771e-13, No Iterations 104
time step continuity errors : sum local = 0.000119268, global = -8.22281e-20, cumulative = 1.81497e-19
ExecutionTime = 1.07 s  ClockTime = 1 s

Coats Number mean: 0.00198452 max: 0.741456
deltaT = 601.812
Time = 21404.3

diagonal:  Solving for water.alpha, Initial residual = 0, Final residual = 0, No Iterations 0
Saturation w  Min = 0.1601 Max = 0.790645
DICPCG:  Solving for p, Initial residual = 0.0950824, Final residual = 8.81736e-13, No Iterations 104
time step continuity errors : sum local = 0.000120362, global = -2.90704e-20, cumulative = 1.52427e-19
ExecutionTime = 1.08 s  ClockTime = 1 s

Coats Number mean: 0.00200203 max: 0.732709
deltaT = 613.167
Time = 22017.4

diagonal:  Solving for water.alpha, Initial residual = 0, Final residual = 0, No Iterations 0
Saturation w  Min = 0.1601 Max = 0.79077
DICPCG:  Solving for p, Initial residual = 0.0975405, Final residual = 8.25191e-13, No Iterations 104
time step continuity errors : sum local = 0.000122633, global = -1.81805e-20, cumulative = 1.34247e-19
ExecutionTime = 1.09 s  ClockTime = 1 s

Coats Number mean: 0.00218086 max: 0.740827
deltaT = 619.063
Time = 22636.5

diagonal:  Solving for water.alpha, Initial residual = 0, Final residual = 0, No Iterations 0
Saturation w  Min = 0.1601 Max = 0.790892
DICPCG:  Solving for p, Initial residual = 0.0873941, Final residual = 9.35126e-13, No Iterations 103
time step continuity errors : sum local = 0.000123813, global = -6.16803e-20, cumulative = 7.25663e-20
ExecutionTime = 1.1 s  ClockTime = 1 s

Coats Number mean: 0.00239319 max: 0.749524
deltaT = 619.063
Time = 23255.5

diagonal:  Solving for water.alpha, Initial residual = 0, Final residual = 0, No Iterations 0
Saturation w  Min = 0.1601 Max = 0.791009
DICPCG:  Solving for p, Initial residual = 0.0852104, Final residual = 9.91488e-13, No Iterations 102
time step continuity errors : sum local = 0.000123813, global = -8.43575e-20, cumulative = -1.17912e-20
ExecutionTime = 1.12 s  ClockTime = 1 s

Coats Number mean: 0.002412 max: 0.750821
deltaT = 613.053
Time = 23868.6

diagonal:  Solving for water.alpha, Initial residual = 0, Final residual = 0, No Iterations 0
Saturation w  Min = 0.1601 Max = 0.791121
DICPCG:  Solving for p, Initial residual = 0.0997613, Final residual = 7.7204e-13, No Iterations 102
time step continuity errors : sum local = 0.000122611, global = -4.38861e-20, cumulative = -5.56774e-20
ExecutionTime = 1.13 s  ClockTime = 1 s

Coats Number mean: 0.00235668 max: 0.731182
deltaT = 625.314
Time = 24493.9

diagonal:  Solving for water.alpha, Initial residual = 0, Final residual = 0, No Iterations 0
Saturation w  Min = 0.1601 Max = 0.79123
DICPCG:  Solving for p, Initial residual = 0.109862, Final residual = 6.52433e-13, No Iterations 103
time step continuity errors : sum local = 0.000125063, global = -1.0695e-20, cumulative = -6.63724e-20
ExecutionTime = 1.14 s  ClockTime = 1 s

Coats Number mean: 0.00245077 max: 0.740085
deltaT = 631.695
Time = 25125.6

diagonal:  Solving for water.alpha, Initial residual = 0, Final residual = 0, No Iterations 0
Saturation w  Min = 0.1601 Max = 0.791337
DICPCG:  Solving for p, Initial residual = 0.110012, Final residual = 9.35106e-13, No Iterations 103
time step continuity errors : sum local = 0.000126339, global = -7.0964e-20, cumulative = -1.37336e-19
ExecutionTime = 1.15 s  ClockTime = 1 s

Coats Number mean: 0.00258286 max: 0.739996
deltaT = 638.275
Time = 25763.9

diagonal:  Solving for water.alpha, Initial residual = 0, Final residual = 0, No Iterations 0
Saturation w  Min = 0.1601 Max = 0.79144
DICPCG:  Solving for p, Initial residual = 0.101394, Final residual = 7.93699e-13, No Iterations 104
time step continuity errors : sum local = 0.000127655, global = 3.73675e-20, cumulative = -9.99689e-20
ExecutionTime = 1.16 s  ClockTime = 1 s

Coats Number mean: 0.00265562 max: 0.727749
deltaT = 652.001
Time = 26415.9

diagonal:  Solving for water.alpha, Initial residual = 0, Final residual = 0, No Iterations 0
Saturation w  Min = 0.1601 Max = 0.791543
DICPCG:  Solving for p, Initial residual = 0.0941997, Final residual = 9.0022e-13, No Iterations 104
time step continuity errors : sum local = 0.0001304, global = 6.69554e-20, cumulative = -3.30135e-20
ExecutionTime = 1.17 s  ClockTime = 1 s

Coats Number mean: 0.00274733 max: 0.702389
deltaT = 689.473
Time = 27105.4

diagonal:  Solving for water.alpha, Initial residual = 0, Final residual = 0, No Iterations 0
Saturation w  Min = 0.1601 Max = 0.791647
DICPCG:  Solving for p, Initial residual = 0.0866046, Final residual = 8.2598e-13, No Iterations 104
time step continuity errors : sum local = 0.000137895, global = -2.60312e-20, cumulative = -5.90446e-20
ExecutionTime = 1.18 s  ClockTime = 2 s

Coats Number mean: 0.00298796 max: 0.697305
deltaT = 741.183
Time = 27846.5

diagonal:  Solving for water.alpha, Initial residual = 0, Final residual = 0, No Iterations 0
Saturation w  Min = 0.1601 Max = 0.791754
DICPCG:  Solving for p, Initial residual = 0.0673041, Final residual = 7.36295e-13, No Iterations 103
time step continuity errors : sum local = 0.000148237, global = -1.47211e-20, cumulative = -7.37657e-20
ExecutionTime = 1.19 s  ClockTime = 2 s

Coats Number mean: 0.00314132 max: 0.878045
deltaT = 629.607
Time = 28476.1

diagonal:  Solving for water.alpha, Initial residual = 0, Final residual = 0, No Iterations 0
Saturation w  Min = 0.1601 Max = 0.791842
DICPCG:  Solving for p, Initial residual = 0.058346, Final residual = 7.69173e-13, No Iterations 101
time step continuity errors : sum local = 0.000125921, global = -4.6981e-20, cumulative = -1.20747e-19
ExecutionTime = 1.2 s  ClockTime = 2 s

Coats Number mean: 0.00256447 max: 0.724826
deltaT = 650.83
Time = 29127

diagonal:  Solving for water.alpha, Initial residual = 0, Final residual = 0, No Iterations 0
Saturation w  Min = 0.1601 Max = 0.79193
DICPCG:  Solving for p, Initial residual = 0.0655884, Final residual = 7.3507e-13, No Iterations 100
time step continuity errors : sum local = 0.000130166, global = 3.66158e-20, cumulative = -8.41309e-20
ExecutionTime = 1.21 s  ClockTime = 2 s

Coats Number mean: 0.00255378 max: 0.715008
deltaT = 681.822
Time = 29808.8

diagonal:  Solving for water.alpha, Initial residual = 0, Final residual = 0, No Iterations 0
Saturation w  Min = 0.1601 Max = 0.79202
DICPCG:  Solving for p, Initial residual = 0.075655, Final residual = 6.01713e-13, No Iterations 100
time step continuity errors : sum local = 0.000136364, global = 1.96133e-20, cumulative = -6.45176e-20
ExecutionTime = 1.22 s  ClockTime = 2 s

Coats Number mean: 0.00260219 max: 0.719377
deltaT = 707.39
Time = 30516.2

diagonal:  Solving for water.alpha, Initial residual = 0, Final residual = 0, No Iterations 0
Saturation w  Min = 0.1601 Max = 0.792109
DICPCG:  Solving for p, Initial residual = 0.0861253, Final residual = 6.02378e-13, No Iterations 100
time step continuity errors : sum local = 0.000141478, global = 4.08736e-20, cumulative = -2.3644e-20
ExecutionTime = 1.23 s  ClockTime = 2 s

Coats Number mean: 0.00267042 max: 0.725859
deltaT = 725.764
Time = 31242

diagonal:  Solving for water.alpha, Initial residual = 0, Final residual = 0, No Iterations 0
Saturation w  Min = 0.1601 Max = 0.792198
DICPCG:  Solving for p, Initial residual = 0.0969192, Final residual = 7.20441e-13, No Iterations 100
time step continuity errors : sum local = 0.000145153, global = 6.20509e-21, cumulative = -1.74389e-20
ExecutionTime = 1.24 s  ClockTime = 2 s

Coats Number mean: 0.0027867 max: 0.733449
deltaT = 735.441
Time = 31977.4

diagonal:  Solving for water.alpha, Initial residual = 0, Final residual = 0, No Iterations 0
Saturation w  Min = 0.1601 Max = 0.792285
DICPCG:  Solving for p, Initial residual = 0.106498, Final residual = 9.60989e-13, No Iterations 100
time step continuity errors : sum local = 0.000147088, global = -2.2131e-20, cumulative = -3.95699e-20
ExecutionTime = 1.25 s  ClockTime = 2 s

Coats Number mean: 0.00297427 max: 0.740282
deltaT = 735.441
Time = 32712.8

diagonal:  Solving for water.alpha, Initial residual = 0, Final residual = 0, No Iterations 0
Saturation w  Min = 0.1601 Max = 0.792369
DICPCG:  Solving for p, Initial residual = 0.114225, Final residual = 6.72576e-13, No Iterations 101
time step continuity errors : sum local = 0.000147088, global = -5.50389e-20, cumulative = -9.46088e-20
ExecutionTime = 1.26 s  ClockTime = 2 s

Coats Number mean: 0.00318057 max: 0.74419
deltaT = 735.441
Time = 33448.3

diagonal:  Solving for water.alpha, Initial residual = 0, Final residual = 0, No Iterations 0
Saturation w  Min = 0.1601 Max = 0.79245
DICPCG:  Solving for p, Initial residual = 0.119333, Final residual = 7.95299e-13, No Iterations 101
time step continuity errors : sum local = 0.000147088, global = 2.81531e-20, cumulative = -6.64557e-20
ExecutionTime = 1.27 s  ClockTime = 2 s

Coats Number mean: 0.00340586 max: 0.753812
deltaT = 725.366
Time = 34173.6

diagonal:  Solving for water.alpha, Initial residual = 0, Final residual = 0, No Iterations 0
Saturation w  Min = 0.1601 Max = 0.792528
DICPCG:  Solving for p, Initial residual = 0.118626, Final residual = 6.92435e-13, No Iterations 101
time step continuity errors : sum local = 0.000145073, global = -5.22056e-21, cumulative = -7.16763e-20
ExecutionTime = 1.28 s  ClockTime = 2 s

Coats Number mean: 0.00361326 max: 0.754501
deltaT = 715.43
Time = 34889.1

diagonal:  Solving for water.alpha, Initial residual = 0, Final residual = 0, No Iterations 0
Saturation w  Min = 0.1601 Max = 0.792602
DICPCG:  Solving for p, Initial residual = 0.113882, Final residual = 7.97427e-13, No Iterations 101
time step continuity errors : sum local = 0.000143086, global = 7.40343e-20, cumulative = 2.358e-21
ExecutionTime = 1.29 s  ClockTime = 2 s

Coats Number mean: 0.00367162 max: 0.744875
deltaT = 715.43
Time = 35604.5

diagonal:  Solving for water.alpha, Initial residual = 0, Final residual = 0, No Iterations 0
Saturation w  Min = 0.1601 Max = 0.792674
DICPCG:  Solving for p, Initial residual = 0.111233, Final residual = 8.39664e-13, No Iterations 101
time step continuity errors : sum local = 0.000143086, global = 2.6266e-20, cumulative = 2.8624e-20
ExecutionTime = 1.3 s  ClockTime = 2 s

Coats Number mean: 0.00362335 max: 0.728848
deltaT = 736.167
Time = 36340.7

diagonal:  Solving for water.alpha, Initial residual = 0, Final residual = 0, No Iterations 0
Saturation w  Min = 0.1601 Max = 0.792746
DICPCG:  Solving for p, Initial residual = 0.112668, Final residual = 9.30963e-13, No Iterations 101
time step continuity errors : sum local = 0.000147233, global = -6.409e-21, cumulative = 2.2215e-20
ExecutionTime = 1.31 s  ClockTime = 2 s

Coats Number mean: 0.00375219 max: 0.716633
deltaT = 770.144
Time = 37110.8

diagonal:  Solving for water.alpha, Initial residual = 0, Final residual = 0, No Iterations 0
Saturation w  Min = 0.1601 Max = 0.792819
DICPCG:  Solving for p, Initial residual = 0.10953, Final residual = 9.81853e-13, No Iterations 101
time step continuity errors : sum local = 0.000154029, global = -1.40711e-20, cumulative = 8.14387e-21
ExecutionTime = 1.32 s  ClockTime = 2 s

Coats Number mean: 0.00416555 max: 0.705716
deltaT = 808.019
Time = 37918.8

diagonal:  Solving for water.alpha, Initial residual = 0, Final residual = 0, No Iterations 0
Saturation w  Min = 0.1601 Max = 0.792893
DICPCG:  Solving for p, Initial residual = 0.0927778, Final residual = 7.23525e-13, No Iterations 101
time step continuity errors : sum local = 0.000161604, global = 1.67458e-20, cumulative = 2.48897e-20
ExecutionTime = 1.33 s  ClockTime = 2 s

Coats Number mean: 0.00467577 max: 0.793169
deltaT = 757.518
Time = 38676.3

diagonal:  Solving for water.alpha, Initial residual = 0, Final residual = 0, No Iterations 0
Saturation w  Min = 0.1601 Max = 0.79296
DICPCG:  Solving for p, Initial residual = 0.0727039, Final residual = 7.24538e-13, No Iterations 100
time step continuity errors : sum local = 0.000151504, global = 4.01027e-23, cumulative = 2.49298e-20
ExecutionTime = 1.34 s  ClockTime = 2 s

Coats Number mean: 0.00432437 max: 0.800793
deltaT = 701.818
Time = 39378.2

diagonal:  Solving for water.alpha, Initial residual = 0, Final residual = 0, No Iterations 0
Saturation w  Min = 0.1601 Max = 0.793021
DICPCG:  Solving for p, Initial residual = 0.0650327, Final residual = 8.71007e-13, No Iterations 98
time step continuity errors : sum local = 0.000140364, global = -8.63829e-21, cumulative = 1.62915e-20
ExecutionTime = 1.35 s  ClockTime = 2 s

Coats Number mean: 0.00382745 max: 0.682217
deltaT = 770.85
Time = 40149

diagonal:  Solving for water.alpha, Initial residual = 0, Final residual = 0, No Iterations 0
Saturation w  Min = 0.1601 Max = 0.793086
DICPCG:  Solving for p, Initial residual = 0.0735239, Final residual = 9.57423e-13, No Iterations 97
time step continuity errors : sum local = 0.00015417, global = 8.86155e-20, cumulative = 1.04907e-19
ExecutionTime = 1.36 s  ClockTime = 2 s

Coats Number mean: 0.00398989 max: 0.713213
deltaT = 797.431
Time = 40946.4

diagonal:  Solving for water.alpha, Initial residual = 0, Final residual = 0, No Iterations 0
Saturation w  Min = 0.1601 Max = 0.793151
DICPCG:  Solving for p, Initial residual = 0.0831669, Final residual = 7.24348e-13, No Iterations 97
time step continuity errors : sum local = 0.000159486, global = -3.56743e-20, cumulative = 6.92327e-20
ExecutionTime = 1.38 s  ClockTime = 2 s

Coats Number mean: 0.00393884 max: 0.707913
deltaT = 841.732
Time = 41788.2

diagonal:  Solving for water.alpha, Initial residual = 0, Final residual = 0, No Iterations 0
Saturation w  Min = 0.1601 Max = 0.793218
DICPCG:  Solving for p, Initial residual = 0.0953353, Final residual = 7.33259e-13, No Iterations 97
time step continuity errors : sum local = 0.000168346, global = -2.33856e-20, cumulative = 4.58471e-20
ExecutionTime = 1.38 s  ClockTime = 2 s

Coats Number mean: 0.00399006 max: 0.724476
deltaT = 857.92
Time = 42646.1

diagonal:  Solving for water.alpha, Initial residual = 0, Final residual = 0, No Iterations 0
Saturation w  Min = 0.1601 Max = 0.793284
DICPCG:  Solving for p, Initial residual = 0.105771, Final residual = 8.83028e-13, No Iterations 97
time step continuity errors : sum local = 0.000171584, global = 2.99872e-21, cumulative = 4.88458e-20
ExecutionTime = 1.39 s  ClockTime = 2 s

Coats Number mean: 0.00392933 max: 0.720027
deltaT = 892.937
Time = 43539

diagonal:  Solving for water.alpha, Initial residual = 0, Final residual = 0, No Iterations 0
Saturation w  Min = 0.1601 Max = 0.793351
DICPCG:  Solving for p, Initial residual = 0.118331, Final residual = 6.38346e-13, No Iterations 98
time step continuity errors : sum local = 0.000178587, global = 4.85007e-20, cumulative = 9.73466e-20
ExecutionTime = 1.4 s  ClockTime = 2 s

Coats Number mean: 0.00398948 max: 0.733592
deltaT = 911.935
Time = 44451

diagonal:  Solving for water.alpha, Initial residual = 0, Final residual = 0, No Iterations 0
Saturation w  Min = 0.1601 Max = 0.793418
DICPCG:  Solving for p, Initial residual = 0.129622, Final residual = 9.13415e-13, No Iterations 98
time step continuity errors : sum local = 0.000182387, global = 2.28039e-20, cumulative = 1.2015e-19
ExecutionTime = 1.41 s  ClockTime = 2 s

Coats Number mean: 0.00406772 max: 0.735882
deltaT = 911.935
Time = 45362.9

diagonal:  Solving for water.alpha, Initial residual = 0, Final residual = 0, No Iterations 0
Saturation w  Min = 0.1601 Max = 0.793482
DICPCG:  Solving for p, Initial residual = 0.136922, Final residual = 7.06814e-13, No Iterations 99
time step continuity errors : sum local = 0.000182387, global = -7.11477e-20, cumulative = 4.90027e-20
ExecutionTime = 1.42 s  ClockTime = 2 s

Coats Number mean: 0.00427521 max: 0.728018
deltaT = 932.661
Time = 46295.6

diagonal:  Solving for water.alpha, Initial residual = 0, Final residual = 0, No Iterations 0
Saturation w  Min = 0.1601 Max = 0.793546
DICPCG:  Solving for p, Initial residual = 0.139026, Final residual = 5.70858e-13, No Iterations 100
time step continuity errors : sum local = 0.000186532, global = -1.01005e-19, cumulative = -5.20018e-20
ExecutionTime = 1.43 s  ClockTime = 2 s

Coats Number mean: 0.00486347 max: 0.761952
deltaT = 911.464
Time = 47207

diagonal:  Solving for water.alpha, Initial residual = 0, Final residual = 0, No Iterations 0
Saturation w  Min = 0.1601 Max = 0.793606
DICPCG:  Solving for p, Initial residual = 0.126446, Final residual = 7.08504e-13, No Iterations 100
time step continuity errors : sum local = 0.000182293, global = -4.9723e-20, cumulative = -1.01725e-19
ExecutionTime = 1.44 s  ClockTime = 2 s

Coats Number mean: 0.00521496 max: 0.828205
deltaT = 816.52
Time = 48023.6

diagonal:  Solving for water.alpha, Initial residual = 0, Final residual = 0, No Iterations 0
Saturation w  Min = 0.1601 Max = 0.793659
DICPCG:  Solving for p, Initial residual = 0.109857, Final residual = 6.45929e-13, No Iterations 100
time step continuity errors : sum local = 0.000163304, global = 4.55507e-20, cumulative = -5.61741e-20
ExecutionTime = 1.45 s  ClockTime = 2 s

Coats Number mean: 0.00485196 max: 0.702023
deltaT = 872.192
Time = 48895.7

diagonal:  Solving for water.alpha, Initial residual = 0, Final residual = 0, No Iterations 0
Saturation w  Min = 0.1601 Max = 0.793714
DICPCG:  Solving for p, Initial residual = 0.108815, Final residual = 7.2618e-13, No Iterations 100
time step continuity errors : sum local = 0.000174438, global = 3.24819e-20, cumulative = -2.36922e-20
ExecutionTime = 1.46 s  ClockTime = 2 s

Coats Number mean: 0.00519364 max: 0.78481
deltaT = 833.428
Time = 49729.2

diagonal:  Solving for water.alpha, Initial residual = 0, Final residual = 0, No Iterations 0
Saturation w  Min = 0.1601 Max = 0.793765
DICPCG:  Solving for p, Initial residual = 0.0952086, Final residual = 9.13908e-13, No Iterations 99
time step continuity errors : sum local = 0.000166686, global = 1.12235e-19, cumulative = 8.85424e-20
ExecutionTime = 1.47 s  ClockTime = 2 s

Coats Number mean: 0.00491515 max: 0.695464
deltaT = 894.41
Time = 50623.6

diagonal:  Solving for water.alpha, Initial residual = 0, Final residual = 0, No Iterations 0
Saturation w  Min = 0.1601 Max = 0.793819
DICPCG:  Solving for p, Initial residual = 0.0923777, Final residual = 7.72911e-13, No Iterations 99
time step continuity errors : sum local = 0.000178882, global = 5.37372e-20, cumulative = 1.4228e-19
ExecutionTime = 1.48 s  ClockTime = 2 s

Coats Number mean: 0.00519633 max: 0.767235
deltaT = 872.596
Time = 51496.2

diagonal:  Solving for water.alpha, Initial residual = 0, Final residual = 0, No Iterations 0
Saturation w  Min = 0.1601 Max = 0.79387
DICPCG:  Solving for p, Initial residual = 0.0930187, Final residual = 6.4946e-13, No Iterations 99
time step continuity errors : sum local = 0.000174519, global = -7.16713e-21, cumulative = 1.35112e-19
ExecutionTime = 1.49 s  ClockTime = 2 s

Coats Number mean: 0.00511481 max: 0.741911
deltaT = 872.596
Time = 52368.8

diagonal:  Solving for water.alpha, Initial residual = 0, Final residual = 0, No Iterations 0
Saturation w  Min = 0.1601 Max = 0.793919
DICPCG:  Solving for p, Initial residual = 0.0859037, Final residual = 9.88481e-13, No Iterations 98
time step continuity errors : sum local = 0.000174519, global = -1.76349e-21, cumulative = 1.33349e-19
ExecutionTime = 1.5 s  ClockTime = 2 s

Coats Number mean: 0.00502589 max: 0.825549
deltaT = 791.424
Time = 53160.2

diagonal:  Solving for water.alpha, Initial residual = 0, Final residual = 0, No Iterations 0
Saturation w  Min = 0.1601 Max = 0.793963
DICPCG:  Solving for p, Initial residual = 0.079683, Final residual = 8.72179e-13, No Iterations 97
time step continuity errors : sum local = 0.000158285, global = 4.50441e-20, cumulative = 1.78393e-19
ExecutionTime = 1.51 s  ClockTime = 2 s

Coats Number mean: 0.00434359 max: 0.698262
deltaT = 830.995
Time = 53991.2

diagonal:  Solving for water.alpha, Initial residual = 0, Final residual = 0, No Iterations 0
Saturation w  Min = 0.1601 Max = 0.794008
DICPCG:  Solving for p, Initial residual = 0.0859315, Final residual = 7.37091e-13, No Iterations 97
time step continuity errors : sum local = 0.000166199, global = 1.49135e-19, cumulative = 3.27528e-19
ExecutionTime = 1.52 s  ClockTime = 2 s

Coats Number mean: 0.00431878 max: 0.636713
deltaT = 925.966
Time = 54917.2

diagonal:  Solving for water.alpha, Initial residual = 0, Final residual = 0, No Iterations 0
Saturation w  Min = 0.1601 Max = 0.794057
DICPCG:  Solving for p, Initial residual = 0.102294, Final residual = 7.97367e-13, No Iterations 97
time step continuity errors : sum local = 0.000185193, global = -2.56474e-20, cumulative = 3.0188e-19
ExecutionTime = 1.54 s  ClockTime = 2 s

Coats Number mean: 0.00457267 max: 0.633218
deltaT = 1015.58
Time = 55932.7

diagonal:  Solving for water.alpha, Initial residual = 0, Final residual = 0, No Iterations 0
Saturation w  Min = 0.1601 Max = 0.79411
DICPCG:  Solving for p, Initial residual = 0.119413, Final residual = 5.28255e-13, No Iterations 98
time step continuity errors : sum local = 0.000203115, global = 1.05109e-21, cumulative = 3.02931e-19
ExecutionTime = 1.55 s  ClockTime = 2 s

Coats Number mean: 0.00485341 max: 0.661021
deltaT = 1128.42
Time = 57061.2

diagonal:  Solving for water.alpha, Initial residual = 0, Final residual = 0, No Iterations 0
Saturation w  Min = 0.1601 Max = 0.794167
DICPCG:  Solving for p, Initial residual = 0.135933, Final residual = 7.35352e-13, No Iterations 98
time step continuity errors : sum local = 0.000225683, global = -5.94228e-20, cumulative = 2.43509e-19
ExecutionTime = 1.56 s  ClockTime = 2 s

Coats Number mean: 0.00534512 max: 0.851076
deltaT = 977.962
Time = 58039.1

diagonal:  Solving for water.alpha, Initial residual = 0, Final residual = 0, No Iterations 0
Saturation w  Min = 0.1601 Max = 0.794215
DICPCG:  Solving for p, Initial residual = 0.125416, Final residual = 8.06681e-13, No Iterations 98
time step continuity errors : sum local = 0.000195592, global = -3.06094e-20, cumulative = 2.12899e-19
ExecutionTime = 1.57 s  ClockTime = 2 s

Coats Number mean: 0.00462092 max: 0.800889
deltaT = 914.867
Time = 58954

diagonal:  Solving for water.alpha, Initial residual = 0, Final residual = 0, No Iterations 0
Saturation w  Min = 0.1601 Max = 0.794258
DICPCG:  Solving for p, Initial residual = 0.119845, Final residual = 6.59055e-13, No Iterations 99
time step continuity errors : sum local = 0.000182973, global = -8.29349e-20, cumulative = 1.29964e-19
ExecutionTime = 1.58 s  ClockTime = 2 s

Coats Number mean: 0.00444325 max: 0.70279
deltaT = 946.414
Time = 59900.4

diagonal:  Solving for water.alpha, Initial residual = 0, Final residual = 0, No Iterations 0
Saturation w  Min = 0.1601 Max = 0.794303
DICPCG:  Solving for p, Initial residual = 0.115898, Final residual = 7.32234e-13, No Iterations 99
time step continuity errors : sum local = 0.000189283, global = -3.84914e-20, cumulative = 9.14729e-20
ExecutionTime = 1.59 s  ClockTime = 2 s

Coats Number mean: 0.00476723 max: 0.782792
deltaT = 883.32
Time = 60783.7

diagonal:  Solving for water.alpha, Initial residual = 0, Final residual = 0, No Iterations 0
Saturation w  Min = 0.1601 Max = 0.794343
DICPCG:  Solving for p, Initial residual = 0.105811, Final residual = 6.05248e-13, No Iterations 99
time step continuity errors : sum local = 0.000176664, global = -4.69029e-20, cumulative = 4.457e-20
ExecutionTime = 1.6 s  ClockTime = 2 s

Coats Number mean: 0.00454717 max: 0.728963
deltaT = 883.32
Time = 61667

diagonal:  Solving for water.alpha, Initial residual = 0, Final residual = 0, No Iterations 0
Saturation w  Min = 0.1601 Max = 0.794382
DICPCG:  Solving for p, Initial residual = 0.106779, Final residual = 7.48458e-13, No Iterations 99
time step continuity errors : sum local = 0.000176664, global = -2.2245e-20, cumulative = 2.23251e-20
ExecutionTime = 1.61 s  ClockTime = 2 s

Coats Number mean: 0.00473909 max: 0.65492
deltaT = 951.268
Time = 62618.3

diagonal:  Solving for water.alpha, Initial residual = 0, Final residual = 0, No Iterations 0
Saturation w  Min = 0.1601 Max = 0.794424
DICPCG:  Solving for p, Initial residual = 0.111399, Final residual = 9.9539e-13, No Iterations 99
time step continuity errors : sum local = 0.000190254, global = -8.29638e-20, cumulative = -6.06387e-20
ExecutionTime = 1.62 s  ClockTime = 2 s

Coats Number mean: 0.00541077 max: 0.706556
deltaT = 990.904
Time = 63609.2

diagonal:  Solving for water.alpha, Initial residual = 0, Final residual = 0, No Iterations 0
Saturation w  Min = 0.1601 Max = 0.794466
DICPCG:  Solving for p, Initial residual = 0.107483, Final residual = 6.42335e-13, No Iterations 100
time step continuity errors : sum local = 0.000198181, global = 1.00693e-20, cumulative = -5.05694e-20
ExecutionTime = 1.63 s  ClockTime = 2 s

Coats Number mean: 0.00580364 max: 0.853594
deltaT = 844.103
Time = 64453.3

diagonal:  Solving for water.alpha, Initial residual = 0, Final residual = 0, No Iterations 0
Saturation w  Min = 0.1601 Max = 0.794501
DICPCG:  Solving for p, Initial residual = 0.0896531, Final residual = 6.86251e-13, No Iterations 99
time step continuity errors : sum local = 0.000168821, global = 3.36578e-20, cumulative = -1.69116e-20
ExecutionTime = 1.64 s  ClockTime = 2 s

Coats Number mean: 0.00486711 max: 0.720008
deltaT = 877.868
Time = 65331.2

diagonal:  Solving for water.alpha, Initial residual = 0, Final residual = 0, No Iterations 0
Saturation w  Min = 0.1601 Max = 0.794537
DICPCG:  Solving for p, Initial residual = 0.0928318, Final residual = 8.99481e-13, No Iterations 98
time step continuity errors : sum local = 0.000175574, global = -5.11469e-20, cumulative = -6.80585e-20
ExecutionTime = 1.65 s  ClockTime = 2 s

Coats Number mean: 0.00491251 max: 0.667143
deltaT = 957.674
Time = 66288.9

diagonal:  Solving for water.alpha, Initial residual = 0, Final residual = 0, No Iterations 0
Saturation w  Min = 0.1601 Max = 0.794576
DICPCG:  Solving for p, Initial residual = 0.106239, Final residual = 8.1755e-13, No Iterations 98
time step continuity errors : sum local = 0.000191535, global = -6.53128e-20, cumulative = -1.33371e-19
ExecutionTime = 1.66 s  ClockTime = 2 s

Coats Number mean: 0.00528759 max: 0.651075
deltaT = 1058.48
Time = 67347.3

diagonal:  Solving for water.alpha, Initial residual = 0, Final residual = 0, No Iterations 0
Saturation w  Min = 0.1601 Max = 0.794617
DICPCG:  Solving for p, Initial residual = 0.112732, Final residual = 8.83252e-13, No Iterations 98
time step continuity errors : sum local = 0.000211696, global = 1.23698e-20, cumulative = -1.21001e-19
ExecutionTime = 1.67 s  ClockTime = 2 s

Coats Number mean: 0.00586962 max: 0.842912
deltaT = 907.27
Time = 68254.6

diagonal:  Solving for water.alpha, Initial residual = 0, Final residual = 0, No Iterations 0
Saturation w  Min = 0.1601 Max = 0.794652
DICPCG:  Solving for p, Initial residual = 0.102065, Final residual = 6.44957e-13, No Iterations 98
time step continuity errors : sum local = 0.000181454, global = -1.55379e-21, cumulative = -1.22555e-19
ExecutionTime = 1.68 s  ClockTime = 2 s

Coats Number mean: 0.00495173 max: 0.751599
deltaT = 864.066
Time = 69118.7

diagonal:  Solving for water.alpha, Initial residual = 0, Final residual = 0, No Iterations 0
Saturation w  Min = 0.1601 Max = 0.794684
DICPCG:  Solving for p, Initial residual = 0.0991451, Final residual = 9.85543e-13, No Iterations 97
time step continuity errors : sum local = 0.000172813, global = 1.35263e-20, cumulative = -1.09029e-19
ExecutionTime = 1.69 s  ClockTime = 2 s

Coats Number mean: 0.00468665 max: 0.652706
deltaT = 960.074
Time = 70078.7

diagonal:  Solving for water.alpha, Initial residual = 0, Final residual = 0, No Iterations 0
Saturation w  Min = 0.1601 Max = 0.79472
DICPCG:  Solving for p, Initial residual = 0.10393, Final residual = 7.19299e-13, No Iterations 98
time step continuity errors : sum local = 0.000192015, global = -8.32553e-20, cumulative = -1.92284e-19
ExecutionTime = 1.7 s  ClockTime = 2 s

Coats Number mean: 0.00520706 max: 0.736487
deltaT = 960.074
Time = 71038.8

diagonal:  Solving for water.alpha, Initial residual = 0, Final residual = 0, No Iterations 0
Saturation w  Min = 0.1601 Max = 0.794755
DICPCG:  Solving for p, Initial residual = 0.097887, Final residual = 8.09566e-13, No Iterations 97
time step continuity errors : sum local = 0.000192015, global = 3.0216e-21, cumulative = -1.89263e-19
ExecutionTime = 1.71 s  ClockTime = 2 s

Coats Number mean: 0.00504458 max: 0.777859
deltaT = 903.599
Time = 71942.4

diagonal:  Solving for water.alpha, Initial residual = 0, Final residual = 0, No Iterations 0
Saturation w  Min = 0.1601 Max = 0.794787
DICPCG:  Solving for p, Initial residual = 0.0945895, Final residual = 6.71261e-13, No Iterations 97
time step continuity errors : sum local = 0.00018072, global = -9.21467e-20, cumulative = -2.81409e-19
ExecutionTime = 1.72 s  ClockTime = 2 s

Coats Number mean: 0.00456531 max: 0.659237
deltaT = 963.839
Time = 72906.3

diagonal:  Solving for water.alpha, Initial residual = 0, Final residual = 0, No Iterations 0
Saturation w  Min = 0.1601 Max = 0.79482
DICPCG:  Solving for p, Initial residual = 0.105089, Final residual = 8.00402e-13, No Iterations 97
time step continuity errors : sum local = 0.000192768, global = -4.5244e-20, cumulative = -3.26653e-19
ExecutionTime = 1.73 s  ClockTime = 2 s

Coats Number mean: 0.0047557 max: 0.617929
deltaT = 1037.98
Time = 73944.2

diagonal:  Solving for water.alpha, Initial residual = 0, Final residual = 0, No Iterations 0
Saturation w  Min = 0.1601 Max = 0.794856
DICPCG:  Solving for p, Initial residual = 0.113661, Final residual = 7.37853e-13, No Iterations 98
time step continuity errors : sum local = 0.000207596, global = 1.27979e-20, cumulative = -3.13855e-19
ExecutionTime = 1.74 s  ClockTime = 2 s

Coats Number mean: 0.00518323 max: 0.59312
deltaT = 1132.34
Time = 75076.6

diagonal:  Solving for water.alpha, Initial residual = 0, Final residual = 0, No Iterations 0
Saturation w  Min = 0.1601 Max = 0.794894
DICPCG:  Solving for p, Initial residual = 0.114436, Final residual = 8.77614e-13, No Iterations 98
time step continuity errors : sum local = 0.000226468, global = -7.54357e-20, cumulative = -3.89291e-19
ExecutionTime = 1.76 s  ClockTime = 2 s

Coats Number mean: 0.00572542 max: 0.873279
deltaT = 943.618
Time = 76020.2

diagonal:  Solving for water.alpha, Initial residual = 0, Final residual = 0, No Iterations 0
Saturation w  Min = 0.1601 Max = 0.794925
DICPCG:  Solving for p, Initial residual = 0.100277, Final residual = 7.73614e-13, No Iterations 98
time step continuity errors : sum local = 0.000188724, global = -1.18288e-19, cumulative = -5.07579e-19
ExecutionTime = 1.76 s  ClockTime = 2 s

Coats Number mean: 0.00474228 max: 0.694337
deltaT = 943.618
Time = 76963.8

diagonal:  Solving for water.alpha, Initial residual = 0, Final residual = 0, No Iterations 0
Saturation w  Min = 0.1601 Max = 0.794955
DICPCG:  Solving for p, Initial residual = 0.103943, Final residual = 9.20646e-13, No Iterations 99
[...]
DICPCG:  Solving for p, Initial residual = 0.0901517, Final residual = 8.32816e-13, No Iterations 99
time step continuity errors : sum local = 0.00035234, global = -1.77317e-21, cumulative = 1.89007e-18
ExecutionTime = 3.54 s  ClockTime = 4 s

Coats Number mean: 0.014956 max: 0.689151
deltaT = 1871.81
Time = 317523

diagonal:  Solving for water.alpha, Initial residual = 0, Final residual = 0, No Iterations 0
Saturation w  Min = 0.1601 Max = 0.797478
DICPCG:  Solving for p, Initial residual = 0.0930928, Final residual = 7.39832e-13, No Iterations 100
time step continuity errors : sum local = 0.000374361, global = -1.53981e-19, cumulative = 1.73609e-18
ExecutionTime = 3.55 s  ClockTime = 4 s

Coats Number mean: 0.0158145 max: 0.66604
deltaT = 1871.81
Time = 319395

diagonal:  Solving for water.alpha, Initial residual = 0, Final residual = 0, No Iterations 0
Saturation w  Min = 0.1601 Max = 0.797485
DICPCG:  Solving for p, Initial residual = 0.0896667, Final residual = 6.18807e-13, No Iterations 100
time step continuity errors : sum local = 0.000374361, global = 1.0252e-19, cumulative = 1.83861e-18
ExecutionTime = 3.56 s  ClockTime = 4 s

Coats Number mean: 0.0155299 max: 0.761803
deltaT = 1747.02
Time = 321142

diagonal:  Solving for water.alpha, Initial residual = 0, Final residual = 0, No Iterations 0
Saturation w  Min = 0.1601 Max = 0.797492
DICPCG:  Solving for p, Initial residual = 0.0878864, Final residual = 6.36548e-13, No Iterations 100
time step continuity errors : sum local = 0.000349404, global = -1.90486e-19, cumulative = 1.64812e-18
ExecutionTime = 3.58 s  ClockTime = 4 s

Coats Number mean: 0.0141749 max: 0.665284
deltaT = 1881.4
Time = 323023

diagonal:  Solving for water.alpha, Initial residual = 0, Final residual = 0, No Iterations 0
Saturation w  Min = 0.1601 Max = 0.797499
DICPCG:  Solving for p, Initial residual = 0.0977807, Final residual = 9.91303e-13, No Iterations 99
time step continuity errors : sum local = 0.000376281, global = -2.15169e-21, cumulative = 1.64597e-18
ExecutionTime = 3.58 s  ClockTime = 4 s

Coats Number mean: 0.0150911 max: 0.633437
deltaT = 1881.4
Time = 324905

diagonal:  Solving for water.alpha, Initial residual = 0, Final residual = 0, No Iterations 0
Saturation w  Min = 0.1601 Max = 0.797507
DICPCG:  Solving for p, Initial residual = 0.100529, Final residual = 6.74736e-13, No Iterations 100
time step continuity errors : sum local = 0.000376281, global = 6.95215e-20, cumulative = 1.71549e-18
ExecutionTime = 3.59 s  ClockTime = 4 s

Coats Number mean: 0.0151963 max: 0.658419
deltaT = 1881.4
Time = 326786

diagonal:  Solving for water.alpha, Initial residual = 0, Final residual = 0, No Iterations 0
Saturation w  Min = 0.1601 Max = 0.797514
DICPCG:  Solving for p, Initial residual = 0.0972298, Final residual = 6.88287e-13, No Iterations 100
time step continuity errors : sum local = 0.000376281, global = 1.42469e-19, cumulative = 1.85796e-18
ExecutionTime = 3.6 s  ClockTime = 4 s

Coats Number mean: 0.0153211 max: 0.720491
deltaT = 1881.4
Time = 328667

diagonal:  Solving for water.alpha, Initial residual = 0, Final residual = 0, No Iterations 0
Saturation w  Min = 0.1601 Max = 0.797521
DICPCG:  Solving for p, Initial residual = 0.0946, Final residual = 6.871e-13, No Iterations 100
time step continuity errors : sum local = 0.000376281, global = -2.17528e-20, cumulative = 1.83621e-18
ExecutionTime = 3.61 s  ClockTime = 4 s

Coats Number mean: 0.0151817 max: 0.734214
deltaT = 1881.4
Time = 330549

diagonal:  Solving for water.alpha, Initial residual = 0, Final residual = 0, No Iterations 0
Saturation w  Min = 0.1601 Max = 0.797528
DICPCG:  Solving for p, Initial residual = 0.0970561, Final residual = 7.08403e-13, No Iterations 100
time step continuity errors : sum local = 0.000376281, global = -5.87744e-20, cumulative = 1.77743e-18
ExecutionTime = 3.62 s  ClockTime = 4 s

Coats Number mean: 0.0148926 max: 0.716912
deltaT = 1881.4
Time = 332430

diagonal:  Solving for water.alpha, Initial residual = 0, Final residual = 0, No Iterations 0
Saturation w  Min = 0.1601 Max = 0.797535
DICPCG:  Solving for p, Initial residual = 0.102149, Final residual = 6.89493e-13, No Iterations 100
time step continuity errors : sum local = 0.000376281, global = 7.5597e-20, cumulative = 1.85303e-18
ExecutionTime = 3.63 s  ClockTime = 4 s

Coats Number mean: 0.0147487 max: 0.641867
deltaT = 1881.4
Time = 334312

diagonal:  Solving for water.alpha, Initial residual = 0, Final residual = 0, No Iterations 0
Saturation w  Min = 0.1601 Max = 0.797541
DICPCG:  Solving for p, Initial residual = 0.106676, Final residual = 8.05398e-13, No Iterations 100
time step continuity errors : sum local = 0.000376281, global = 8.09754e-21, cumulative = 1.86113e-18
ExecutionTime = 3.64 s  ClockTime = 4 s

Coats Number mean: 0.0148282 max: 0.626116
deltaT = 1881.4
Time = 336193

diagonal:  Solving for water.alpha, Initial residual = 0, Final residual = 0, No Iterations 0
Saturation w  Min = 0.1601 Max = 0.797548
DICPCG:  Solving for p, Initial residual = 0.108632, Final residual = 8.71399e-13, No Iterations 100
time step continuity errors : sum local = 0.000376281, global = -7.64934e-21, cumulative = 1.85348e-18
ExecutionTime = 3.65 s  ClockTime = 4 s

Coats Number mean: 0.014943 max: 0.704216
deltaT = 1881.4
Time = 338074

diagonal:  Solving for water.alpha, Initial residual = 0, Final residual = 0, No Iterations 0
Saturation w  Min = 0.1601 Max = 0.797555
DICPCG:  Solving for p, Initial residual = 0.108395, Final residual = 8.39436e-13, No Iterations 100
time step continuity errors : sum local = 0.000376281, global = -1.55418e-19, cumulative = 1.69806e-18
ExecutionTime = 3.67 s  ClockTime = 4 s

Coats Number mean: 0.01506 max: 0.747703
deltaT = 1881.4
Time = 339956

diagonal:  Solving for water.alpha, Initial residual = 0, Final residual = 0, No Iterations 0
Saturation w  Min = 0.1601 Max = 0.797562
DICPCG:  Solving for p, Initial residual = 0.106374, Final residual = 8.02901e-13, No Iterations 100
time step continuity errors : sum local = 0.000376281, global = 4.71995e-20, cumulative = 1.74526e-18
ExecutionTime = 3.68 s  ClockTime = 4 s

Coats Number mean: 0.015291 max: 0.700377
deltaT = 1881.4
Time = 341837

diagonal:  Solving for water.alpha, Initial residual = 0, Final residual = 0, No Iterations 0
Saturation w  Min = 0.1601 Max = 0.797568
DICPCG:  Solving for p, Initial residual = 0.101615, Final residual = 9.65178e-13, No Iterations 97
time step continuity errors : sum local = 0.000376281, global = -5.77809e-21, cumulative = 1.73948e-18
ExecutionTime = 3.69 s  ClockTime = 4 s

Coats Number mean: 0.015556 max: 0.736162
deltaT = 1881.4
Time = 343719

diagonal:  Solving for water.alpha, Initial residual = 0, Final residual = 0, No Iterations 0
Saturation w  Min = 0.1601 Max = 0.797575
DICPCG:  Solving for p, Initial residual = 0.100704, Final residual = 7.05857e-13, No Iterations 100
time step continuity errors : sum local = 0.000376281, global = 6.86486e-20, cumulative = 1.80813e-18
ExecutionTime = 3.7 s  ClockTime = 4 s

Coats Number mean: 0.0158355 max: 0.718307
deltaT = 1881.4
Time = 345600

diagonal:  Solving for water.alpha, Initial residual = 0, Final residual = 0, No Iterations 0
Saturation w  Min = 0.1601 Max = 0.797581
DICPCG:  Solving for p, Initial residual = 0.0979944, Final residual = 7.76324e-13, No Iterations 100
time step continuity errors : sum local = 0.000376281, global = -1.38101e-19, cumulative = 1.67003e-18
ExecutionTime = 3.74 s  ClockTime = 4 s

Coats Number mean: 0.0161924 max: 0.685507
deltaT = 1963.64
Time = 347564

diagonal:  Solving for water.alpha, Initial residual = 0, Final residual = 0, No Iterations 0
Saturation w  Min = 0.1601 Max = 0.797588
DICPCG:  Solving for p, Initial residual = 0.0960062, Final residual = 8.17849e-13, No Iterations 100
time step continuity errors : sum local = 0.000392727, global = 9.52895e-20, cumulative = 1.76532e-18
ExecutionTime = 3.75 s  ClockTime = 4 s

Coats Number mean: 0.0171322 max: 0.745198
deltaT = 1963.64
Time = 349527

diagonal:  Solving for water.alpha, Initial residual = 0, Final residual = 0, No Iterations 0
Saturation w  Min = 0.1601 Max = 0.797595
DICPCG:  Solving for p, Initial residual = 0.0908509, Final residual = 7.05459e-13, No Iterations 100
time step continuity errors : sum local = 0.000392727, global = 3.21452e-19, cumulative = 2.08677e-18
ExecutionTime = 3.77 s  ClockTime = 4 s

Coats Number mean: 0.0169493 max: 0.754311
deltaT = 1917.97
Time = 351445

diagonal:  Solving for water.alpha, Initial residual = 0, Final residual = 0, No Iterations 0
Saturation w  Min = 0.1601 Max = 0.797601
DICPCG:  Solving for p, Initial residual = 0.0919983, Final residual = 9.88394e-13, No Iterations 99
time step continuity errors : sum local = 0.000383594, global = 6.17088e-21, cumulative = 2.09294e-18
ExecutionTime = 3.77 s  ClockTime = 4 s

Coats Number mean: 0.0162592 max: 0.669395
deltaT = 1964.75
Time = 353410

diagonal:  Solving for water.alpha, Initial residual = 0, Final residual = 0, No Iterations 0
Saturation w  Min = 0.1601 Max = 0.797608
DICPCG:  Solving for p, Initial residual = 0.0981446, Final residual = 8.99395e-13, No Iterations 99
time step continuity errors : sum local = 0.00039295, global = -5.92094e-20, cumulative = 2.03373e-18
ExecutionTime = 3.79 s  ClockTime = 4 s

Coats Number mean: 0.0163828 max: 0.680607
deltaT = 1964.75
Time = 355375

diagonal:  Solving for water.alpha, Initial residual = 0, Final residual = 0, No Iterations 0
Saturation w  Min = 0.1601 Max = 0.797614
DICPCG:  Solving for p, Initial residual = 0.103448, Final residual = 8.30188e-13, No Iterations 99
time step continuity errors : sum local = 0.00039295, global = -7.68812e-20, cumulative = 1.95685e-18
ExecutionTime = 3.79 s  ClockTime = 4 s

Coats Number mean: 0.0161748 max: 0.70686
deltaT = 1964.75
Time = 357339

diagonal:  Solving for water.alpha, Initial residual = 0, Final residual = 0, No Iterations 0
Saturation w  Min = 0.1601 Max = 0.797621
DICPCG:  Solving for p, Initial residual = 0.107306, Final residual = 8.84044e-13, No Iterations 99
time step continuity errors : sum local = 0.00039295, global = -7.88991e-20, cumulative = 1.87795e-18
ExecutionTime = 3.81 s  ClockTime = 4 s

Coats Number mean: 0.0162448 max: 0.651944
deltaT = 1964.75
Time = 359304

diagonal:  Solving for water.alpha, Initial residual = 0, Final residual = 0, No Iterations 0
Saturation w  Min = 0.1601 Max = 0.797627
DICPCG:  Solving for p, Initial residual = 0.105628, Final residual = 8.15582e-13, No Iterations 99
time step continuity errors : sum local = 0.00039295, global = 1.44058e-21, cumulative = 1.87939e-18
ExecutionTime = 3.81 s  ClockTime = 4 s

Coats Number mean: 0.0166466 max: 0.659452
deltaT = 1964.75
Time = 361269

diagonal:  Solving for water.alpha, Initial residual = 0, Final residual = 0, No Iterations 0
Saturation w  Min = 0.1601 Max = 0.797633
DICPCG:  Solving for p, Initial residual = 0.100603, Final residual = 8.64003e-13, No Iterations 99
time step continuity errors : sum local = 0.00039295, global = -1.01153e-19, cumulative = 1.77824e-18
ExecutionTime = 3.82 s  ClockTime = 4 s

Coats Number mean: 0.0169325 max: 0.739338
deltaT = 1964.75
Time = 363234

diagonal:  Solving for water.alpha, Initial residual = 0, Final residual = 0, No Iterations 0
Saturation w  Min = 0.1601 Max = 0.79764
DICPCG:  Solving for p, Initial residual = 0.0974263, Final residual = 9.2541e-13, No Iterations 99
time step continuity errors : sum local = 0.00039295, global = 1.92757e-19, cumulative = 1.971e-18
ExecutionTime = 3.83 s  ClockTime = 4 s

Coats Number mean: 0.0168875 max: 0.76273
deltaT = 1910.17
Time = 365144

diagonal:  Solving for water.alpha, Initial residual = 0, Final residual = 0, No Iterations 0
Saturation w  Min = 0.1601 Max = 0.797646
DICPCG:  Solving for p, Initial residual = 0.0925607, Final residual = 8.80434e-13, No Iterations 99
time step continuity errors : sum local = 0.000382035, global = 1.01225e-20, cumulative = 1.98112e-18
ExecutionTime = 3.84 s  ClockTime = 4 s

Coats Number mean: 0.0161848 max: 0.734313
deltaT = 1910.17
Time = 367054

diagonal:  Solving for water.alpha, Initial residual = 0, Final residual = 0, No Iterations 0
Saturation w  Min = 0.1601 Max = 0.797652
DICPCG:  Solving for p, Initial residual = 0.0932778, Final residual = 7.54497e-13, No Iterations 99
time step continuity errors : sum local = 0.000382035, global = 2.41741e-19, cumulative = 2.22286e-18
ExecutionTime = 3.85 s  ClockTime = 4 s

Coats Number mean: 0.0160278 max: 0.697542
deltaT = 1968.06
Time = 369022

diagonal:  Solving for water.alpha, Initial residual = 0, Final residual = 0, No Iterations 0
Saturation w  Min = 0.1601 Max = 0.797658
DICPCG:  Solving for p, Initial residual = 0.0965993, Final residual = 6.41632e-13, No Iterations 99
time step continuity errors : sum local = 0.000393612, global = -1.34142e-19, cumulative = 2.08872e-18
ExecutionTime = 3.87 s  ClockTime = 4 s

Coats Number mean: 0.0165148 max: 0.668796
deltaT = 1968.06
Time = 370990

diagonal:  Solving for water.alpha, Initial residual = 0, Final residual = 0, No Iterations 0
Saturation w  Min = 0.1601 Max = 0.797664
DICPCG:  Solving for p, Initial residual = 0.0952063, Final residual = 7.28238e-13, No Iterations 99
time step continuity errors : sum local = 0.000393612, global = 2.08887e-19, cumulative = 2.29761e-18
ExecutionTime = 3.88 s  ClockTime = 4 s

Coats Number mean: 0.0164117 max: 0.737919
deltaT = 1968.06
Time = 372958

diagonal:  Solving for water.alpha, Initial residual = 0, Final residual = 0, No Iterations 0
Saturation w  Min = 0.1601 Max = 0.79767
DICPCG:  Solving for p, Initial residual = 0.0985341, Final residual = 7.66381e-13, No Iterations 99
time step continuity errors : sum local = 0.000393612, global = 6.08563e-20, cumulative = 2.35846e-18
ExecutionTime = 3.89 s  ClockTime = 4 s

Coats Number mean: 0.0162491 max: 0.692535
deltaT = 1968.06
Time = 374926

diagonal:  Solving for water.alpha, Initial residual = 0, Final residual = 0, No Iterations 0
Saturation w  Min = 0.1601 Max = 0.797676
DICPCG:  Solving for p, Initial residual = 0.100893, Final residual = 7.49683e-13, No Iterations 99
time step continuity errors : sum local = 0.000393612, global = 3.37205e-20, cumulative = 2.39218e-18
ExecutionTime = 3.9 s  ClockTime = 4 s

Coats Number mean: 0.0162268 max: 0.632163
deltaT = 1968.06
Time = 376894

diagonal:  Solving for water.alpha, Initial residual = 0, Final residual = 0, No Iterations 0
Saturation w  Min = 0.1601 Max = 0.797682
DICPCG:  Solving for p, Initial residual = 0.101865, Final residual = 8.18172e-13, No Iterations 99
time step continuity errors : sum local = 0.000393612, global = -7.01134e-20, cumulative = 2.32207e-18
ExecutionTime = 3.91 s  ClockTime = 4 s

Coats Number mean: 0.0163457 max: 0.71357
deltaT = 1968.06
Time = 378862

diagonal:  Solving for water.alpha, Initial residual = 0, Final residual = 0, No Iterations 0
Saturation w  Min = 0.1601 Max = 0.797688
DICPCG:  Solving for p, Initial residual = 0.101878, Final residual = 9.62679e-13, No Iterations 99
time step continuity errors : sum local = 0.000393612, global = -1.57829e-19, cumulative = 2.16424e-18
ExecutionTime = 3.92 s  ClockTime = 4 s

Coats Number mean: 0.0166071 max: 0.692745
deltaT = 1968.06
Time = 380830

diagonal:  Solving for water.alpha, Initial residual = 0, Final residual = 0, No Iterations 0
Saturation w  Min = 0.1601 Max = 0.797694
DICPCG:  Solving for p, Initial residual = 0.0988272, Final residual = 7.4657e-13, No Iterations 100
time step continuity errors : sum local = 0.000393612, global = -1.67399e-19, cumulative = 1.99684e-18
ExecutionTime = 3.93 s  ClockTime = 4 s

Coats Number mean: 0.0168888 max: 0.717584
deltaT = 1968.06
Time = 382799

diagonal:  Solving for water.alpha, Initial residual = 0, Final residual = 0, No Iterations 0
Saturation w  Min = 0.1601 Max = 0.7977
DICPCG:  Solving for p, Initial residual = 0.100003, Final residual = 8.06082e-13, No Iterations 100
time step continuity errors : sum local = 0.000393612, global = -1.79751e-20, cumulative = 1.97887e-18
ExecutionTime = 3.94 s  ClockTime = 4 s

Coats Number mean: 0.0170371 max: 0.696459
deltaT = 1968.06
Time = 384767

diagonal:  Solving for water.alpha, Initial residual = 0, Final residual = 0, No Iterations 0
Saturation w  Min = 0.1601 Max = 0.797706
DICPCG:  Solving for p, Initial residual = 0.10157, Final residual = 7.96908e-13, No Iterations 100
time step continuity errors : sum local = 0.000393612, global = 1.09663e-19, cumulative = 2.08853e-18
ExecutionTime = 3.95 s  ClockTime = 4 s

Coats Number mean: 0.017039 max: 0.691178
deltaT = 1968.06
Time = 386735

diagonal:  Solving for water.alpha, Initial residual = 0, Final residual = 0, No Iterations 0
Saturation w  Min = 0.1601 Max = 0.797712
DICPCG:  Solving for p, Initial residual = 0.104013, Final residual = 7.35713e-13, No Iterations 100
time step continuity errors : sum local = 0.000393612, global = 5.17268e-20, cumulative = 2.14026e-18
ExecutionTime = 3.96 s  ClockTime = 4 s

Coats Number mean: 0.0170428 max: 0.654654
deltaT = 1968.06
Time = 388703

diagonal:  Solving for water.alpha, Initial residual = 0, Final residual = 0, No Iterations 0
Saturation w  Min = 0.1601 Max = 0.797717
DICPCG:  Solving for p, Initial residual = 0.106205, Final residual = 6.01134e-13, No Iterations 100
time step continuity errors : sum local = 0.000393612, global = 3.4567e-20, cumulative = 2.17482e-18
ExecutionTime = 3.97 s  ClockTime = 4 s

Coats Number mean: 0.0171838 max: 0.642517
deltaT = 1968.06
Time = 390671

diagonal:  Solving for water.alpha, Initial residual = 0, Final residual = 0, No Iterations 0
Saturation w  Min = 0.1601 Max = 0.797723
DICPCG:  Solving for p, Initial residual = 0.104584, Final residual = 6.4485e-13, No Iterations 100
time step continuity errors : sum local = 0.000393612, global = -7.0353e-20, cumulative = 2.10447e-18
ExecutionTime = 3.98 s  ClockTime = 4 s

Coats Number mean: 0.0174498 max: 0.727492
deltaT = 1968.06
Time = 392639

diagonal:  Solving for water.alpha, Initial residual = 0, Final residual = 0, No Iterations 0
Saturation w  Min = 0.1601 Max = 0.797729
DICPCG:  Solving for p, Initial residual = 0.0981216, Final residual = 9.50108e-13, No Iterations 99
time step continuity errors : sum local = 0.000393612, global = -2.74335e-19, cumulative = 1.83013e-18
ExecutionTime = 3.99 s  ClockTime = 4 s

Coats Number mean: 0.0177349 max: 0.716763
deltaT = 1968.06
Time = 394607

diagonal:  Solving for water.alpha, Initial residual = 0, Final residual = 0, No Iterations 0
Saturation w  Min = 0.1601 Max = 0.797734
DICPCG:  Solving for p, Initial residual = 0.0887988, Final residual = 9.57292e-13, No Iterations 99
time step continuity errors : sum local = 0.000393612, global = -3.24194e-19, cumulative = 1.50594e-18
ExecutionTime = 4 s  ClockTime = 4 s

Coats Number mean: 0.0178418 max: 0.728648
deltaT = 1968.06
Time = 396575

diagonal:  Solving for water.alpha, Initial residual = 0, Final residual = 0, No Iterations 0
Saturation w  Min = 0.1601 Max = 0.79774
DICPCG:  Solving for p, Initial residual = 0.086853, Final residual = 9.24432e-13, No Iterations 99
time step continuity errors : sum local = 0.000393612, global = -4.73665e-20, cumulative = 1.45857e-18
ExecutionTime = 4.01 s  ClockTime = 4 s

Coats Number mean: 0.0177682 max: 0.706101
deltaT = 1968.06
Time = 398543

diagonal:  Solving for water.alpha, Initial residual = 0, Final residual = 0, No Iterations 0
Saturation w  Min = 0.1601 Max = 0.797745
DICPCG:  Solving for p, Initial residual = 0.0873452, Final residual = 7.87095e-13, No Iterations 99
time step continuity errors : sum local = 0.000393612, global = 3.66664e-20, cumulative = 1.49524e-18
ExecutionTime = 4.02 s  ClockTime = 4 s

Coats Number mean: 0.0176216 max: 0.693068
deltaT = 1968.06
Time = 400511

diagonal:  Solving for water.alpha, Initial residual = 0, Final residual = 0, No Iterations 0
Saturation w  Min = 0.1601 Max = 0.797751
